aquifer.con: written by SWAT+ editor v3.0.8 on 2025-11-17 21:10 for SWAT+ rev.61.0.1
      id  name                gis_id          area           lat           lon          elev       aqu               wst       cst      ovfl      rule   out_tot       obj_typ    obj_id       hyd_typ          frac
       1  aqu010                  10  1689812.50000      42.66776      97.45784    1177.00000         1     s42531n97031e         0         0         0         2           sdc         8           tot       1.00000           aqu        16           rhg       1.00000
       2  aqu020                  20  778787.50000      42.75443     100.53261    1093.00000         2    s42781n100531e         0         0         0         2           sdc        52           tot       1.00000           aqu        16           rhg       1.00000
       3  aqu030                  30  219850.00000      42.78463     101.12872    1211.00000         3    s43031n101531e         0         0         0         2           sdc        47           tot       1.00000           aqu        16           rhg       1.00000
       4  aqu040                  40  251568.75000      42.55164     101.20240     999.00000         4    s43031n101531e         0         0         0         2           sdc        29           tot       1.00000           aqu        16           rhg       1.00000
       5  aqu050                  50  1124412.50000      42.45913      99.26907     901.00000         5     s42531n99281e         0         0         0         2           sdc        45           tot       1.00000           aqu        16           rhg       1.00000
       6  aqu060                  60  1016712.50000      41.92042      97.22328    1661.00000         6     s41781n97031e         0         0         0         2           sdc         5           tot       1.00000           aqu        16           rhg       1.00000
       7  aqu070                  70  172643.75000      41.94654     100.48117     954.00000         7    s42031n100531e         0         0         0         2           sdc        31           tot       1.00000           aqu        16           rhg       1.00000
       8  aqu080                  80  3498743.75000      41.42874      98.68474    1195.00000         8     s41281n98531e         0         0         0         2           sdc        33           tot       1.00000           aqu        16           rhg       1.00000
       9  aqu090                  90  640543.75000      40.93448      99.81684    1150.00000         9     s40781n99781e         0         0         0         2           sdc        44           tot       1.00000           aqu        17           rhg       1.00000
      10  aqu100                 100  1985075.00000      40.17607      97.83938    1300.00000        10     s40031n97531e         0         0         0         2           sdc        97           tot       1.00000           aqu        17           rhg       1.00000
      11  aqu110                 110  364900.00000      40.28976      99.25275    1182.00000        11     s40281n99031e         0         0         0         2           sdc        76           tot       1.00000           aqu        17           rhg       1.00000
      12  aqu120                 120  1563218.75000      39.33184      99.66422    1391.00000        12     s39281n99781e         0         0         0         2           sdc        75           tot       1.00000           aqu        17           rhg       1.00000
      13  aqu130                 130  1340912.50000      39.24539      98.37273    4139.00000        13     s39031n98281e         0         0         0         2           sdc       100           tot       1.00000           aqu        17           rhg       1.00000
      14  aqu140                 140  1018900.00000      38.57632     100.87672    2012.00000        14    s38781n100781e         0         0         0         2           sdc       140           tot       1.00000           aqu        17           rhg       1.00000
      15  aqu150                 150  1028581.25000      38.41885      99.80806    4174.00000        15     s38281n99531e         0         0         0         2           sdc       139           tot       1.00000           aqu        17           rhg       1.00000
      16  aqu_deep004              4  8752531.25000      42.05634      98.68537    1188.82588        16     s42531n99281e         0         0         0         0
      17  aqu_deep009              9  7942131.25000      39.49014      99.16331    2243.26860        17     s39031n99281e         0         0         0         0
