rout_unit.ele: written by SWAT+ editor v3.0.8 on 2025-11-17 21:10 for SWAT+ rev.61.0.1
      id  name                   obj_typ    obj_id          frac               dlr
       1  hru00001                   hru         1     6.0865E-3                 0
       2  hru00002                   hru         2     6.2332E-3                 0
       3  hru00003                   hru         3     2.2073E-2                 0
       4  hru00004                   hru         4     6.7216E-1                 0
       5  hru00005                   hru         5     2.9049E-1                 0
       6  hru00006                   hru         6     2.9088E-3                 0
       7  hru00007                   hru         7     4.8888E-5                 0
       8  hru00008                   hru         8     1.1970E-1                 0
       9  hru00009                   hru         9     3.8527E-1                 0
      10  hru00010                   hru        10     9.2498E-3                 0
      11  hru00011                   hru        11     1.1699E-3                 0
      12  hru00012                   hru        12     3.6560E-4                 0
      13  hru00013                   hru        13     2.7468E-1                 0
      14  hru00014                   hru        14     9.0487E-2                 0
      15  hru00015                   hru        15     6.1421E-3                 0
      16  hru00016                   hru        16     1.0968E-4                 0
      17  hru00017                   hru        17     4.7529E-4                 0
      18  hru00018                   hru        18     9.1401E-4                 0
      19  hru00019                   hru        19     6.9465E-4                 0
      20  hru00020                   hru        20     3.6560E-5                 0
      21  hru00021                   hru        21     3.9485E-3                 0
      22  hru00022                   hru        22     3.8023E-3                 0
      23  hru00023                   hru        23     6.5809E-4                 0
      24  hru00024                   hru        24     7.3121E-5                 0
      25  hru00025                   hru        25     5.1696E-2                 0
      26  hru00026                   hru        26     4.5993E-2                 0
      27  hru00027                   hru        27     3.8388E-3                 0
      28  hru00028                   hru        28     4.7529E-4                 0
      29  hru00029                   hru        29     3.6560E-5                 0
      30  hru00030                   hru        30     1.8280E-4                 0
      31  hru00031                   hru        31     3.5760E-1                 0
      32  hru00032                   hru        32     5.6765E-1                 0
      33  hru00033                   hru        33     4.6654E-2                 0
      34  hru00034                   hru        34     1.1090E-2                 0
      35  hru00035                   hru        35     5.2116E-3                 0
      36  hru00036                   hru        36     3.3354E-4                 0
      37  hru00037                   hru        37     8.3385E-5                 0
      38  hru00038                   hru        38     6.6708E-3                 0
      39  hru00039                   hru        39     3.9608E-3                 0
      40  hru00040                   hru        40     1.2508E-4                 0
      41  hru00041                   hru        41     4.1693E-4                 0
      42  hru00042                   hru        42     2.0846E-4                 0
      43  hru00043                   hru        43     3.9320E-1                 0
      44  hru00044                   hru        44     5.0941E-1                 0
      45  hru00045                   hru        45     5.8554E-2                 0
      46  hru00046                   hru        46     1.1496E-2                 0
      47  hru00047                   hru        47     4.7057E-3                 0
      48  hru00048                   hru        48     1.3641E-2                 0
      49  hru00049                   hru        49     7.9819E-3                 0
      50  hru00050                   hru        50     4.1696E-4                 0
      51  hru00051                   hru        51     1.7870E-4                 0
      52  hru00052                   hru        52     1.1913E-4                 0
      53  hru00053                   hru        53     1.7870E-4                 0
      54  hru00054                   hru        54     5.9566E-5                 0
      55  hru00055                   hru        55     5.9566E-5                 0
      56  hru00056                   hru        56     2.1065E-1                 0
      57  hru00057                   hru        57     1.5879E-1                 0
      58  hru00058                   hru        58     4.9781E-2                 0
      59  hru00059                   hru        59     1.6722E-2                 0
      60  hru00060                   hru        60     1.0285E-2                 0
      61  hru00061                   hru        61     1.2610E-1                 0
      62  hru00062                   hru        62     1.5084E-1                 0
      63  hru00063                   hru        63     3.1006E-3                 0
      64  hru00064                   hru        64     1.9673E-2                 0
      65  hru00065                   hru        65     5.2390E-3                 0
      66  hru00066                   hru        66     8.9191E-2                 0
      67  hru00067                   hru        67     5.3886E-3                 0
      68  hru00068                   hru        68     1.1075E-1                 0
      69  hru00069                   hru        69     3.2075E-4                 0
      70  hru00070                   hru        70     6.4151E-4                 0
      71  hru00071                   hru        71     8.1685E-3                 0
      72  hru00072                   hru        72     1.2616E-2                 0
      73  hru00073                   hru        73     2.5660E-4                 0
      74  hru00074                   hru        74     2.1384E-5                 0
      75  hru00075                   hru        75     1.2189E-2                 0
      76  hru00076                   hru        76     8.8528E-3                 0
      77  hru00077                   hru        77     3.8490E-4                 0
      78  hru00078                   hru        78     4.2767E-5                 0
      79  hru00079                   hru        79     1.9137E-1                 0
      80  hru00080                   hru        80     3.8510E-1                 0
      81  hru00081                   hru        81     1.4258E-2                 0
      82  hru00082                   hru        82     4.0947E-3                 0
      83  hru00083                   hru        83     2.0967E-3                 0
      84  hru00084                   hru        84     2.7000E-1                 0
      85  hru00085                   hru        85     6.5294E-2                 0
      86  hru00086                   hru        86     4.9334E-5                 0
      87  hru00087                   hru        87     1.0607E-3                 0
      88  hru00088                   hru        88     1.1297E-2                 0
      89  hru00089                   hru        89     3.0094E-3                 0
      90  hru00090                   hru        90     1.9980E-2                 0
      91  hru00091                   hru        91     2.3952E-2                 0
      92  hru00092                   hru        92     2.3680E-3                 0
      93  hru00093                   hru        93     8.6334E-4                 0
      94  hru00094                   hru        94     6.4134E-4                 0
      95  hru00095                   hru        95     7.8934E-4                 0
      96  hru00096                   hru        96     1.3814E-3                 0
      97  hru00097                   hru        97     8.3868E-4                 0
      98  hru00098                   hru        98     3.2067E-4                 0
      99  hru00099                   hru        99     5.9201E-4                 0
     100  hru00100                   hru       100     4.6867E-4                 0
     101  hru00101                   hru       101     2.4667E-5                 0
     102  hru00102                   hru       102     1.2333E-4                 0
     103  hru00103                   hru       103     2.4667E-5                 0
     104  hru00104                   hru       104     1.2831E-2                 0
     105  hru00105                   hru       105     3.6327E-1                 0
     106  hru00106                   hru       106     2.6464E-2                 0
     107  hru00107                   hru       107     7.2975E-2                 0
     108  hru00108                   hru       108     3.9134E-1                 0
     109  hru00109                   hru       109     2.7265E-2                 0
     110  hru00110                   hru       110     1.4435E-2                 0
     111  hru00111                   hru       111     8.0192E-4                 0
     112  hru00112                   hru       112     4.7314E-2                 0
     113  hru00113                   hru       113     4.2502E-2                 0
     114  hru00114                   hru       114     8.0192E-4                 0
     115  hru00115                   hru       115     1.7659E-1                 0
     116  hru00116                   hru       116     8.6343E-3                 0
     117  hru00117                   hru       117     2.0926E-1                 0
     118  hru00118                   hru       118     4.6672E-4                 0
     119  hru00119                   hru       119     1.1668E-4                 0
     120  hru00120                   hru       120     2.1393E-1                 0
     121  hru00121                   hru       121     1.9882E-1                 0
     122  hru00122                   hru       122     1.1610E-2                 0
     123  hru00123                   hru       123     1.5752E-3                 0
     124  hru00124                   hru       124     4.0838E-4                 0
     125  hru00125                   hru       125     7.1349E-2                 0
     126  hru00126                   hru       126     9.4977E-2                 0
     127  hru00127                   hru       127     5.8340E-5                 0
     128  hru00128                   hru       128     2.4503E-3                 0
     129  hru00129                   hru       129     6.4174E-4                 0
     130  hru00130                   hru       130     7.5842E-4                 0
     131  hru00131                   hru       131     3.5004E-4                 0
     132  hru00132                   hru       132     1.7502E-4                 0
     133  hru00133                   hru       133     2.6253E-3                 0
     134  hru00134                   hru       134     3.9088E-3                 0
     135  hru00135                   hru       135     2.9170E-4                 0
     136  hru00136                   hru       136     5.8340E-5                 0
     137  hru00137                   hru       137     5.8340E-5                 0
     138  hru00138                   hru       138     2.3336E-4                 0
     139  hru00139                   hru       139     5.8340E-5                 0
     140  hru00140                   hru       140     4.6672E-4                 0
     141  hru00141                   hru       141     1.1668E-4                 0
     142  hru00142                   hru       142     1.3180E-1                 0
     143  hru00143                   hru       143     9.4595E-2                 0
     144  hru00144                   hru       144     5.1854E-3                 0
     145  hru00145                   hru       145     2.7498E-4                 0
     146  hru00146                   hru       146     3.1427E-4                 0
     147  hru00147                   hru       147     1.6189E-1                 0
     148  hru00148                   hru       148     2.6069E-1                 0
     149  hru00149                   hru       149     8.7995E-3                 0
     150  hru00150                   hru       150     1.2571E-3                 0
     151  hru00151                   hru       151     7.4639E-4                 0
     152  hru00152                   hru       152     5.9750E-2                 0
     153  hru00153                   hru       153     1.0174E-1                 0
     154  hru00154                   hru       154     5.4211E-3                 0
     155  hru00155                   hru       155     1.8856E-3                 0
     156  hru00156                   hru       156     1.0607E-3                 0
     157  hru00157                   hru       157     7.6210E-3                 0
     158  hru00158                   hru       158     2.3177E-3                 0
     159  hru00159                   hru       159     2.1999E-2                 0
     160  hru00160                   hru       160     3.0602E-2                 0
     161  hru00161                   hru       161     1.0607E-3                 0
     162  hru00162                   hru       162     1.6106E-3                 0
     163  hru00163                   hru       163     2.5927E-3                 0
     164  hru00164                   hru       164     4.5176E-3                 0
     165  hru00165                   hru       165     2.3570E-3                 0
     166  hru00166                   hru       166     4.2819E-2                 0
     167  hru00167                   hru       167     2.5338E-2                 0
     168  hru00168                   hru       168     4.3212E-4                 0
     169  hru00169                   hru       169     1.4142E-3                 0
     170  hru00170                   hru       170     2.7498E-4                 0
     171  hru00171                   hru       171     6.9532E-3                 0
     172  hru00172                   hru       172     3.4569E-3                 0
     173  hru00173                   hru       173     3.2998E-3                 0
     174  hru00174                   hru       174     2.0820E-3                 0
     175  hru00175                   hru       175     7.8567E-5                 0
     176  hru00176                   hru       176     3.5355E-4                 0
     177  hru00177                   hru       177     1.6892E-3                 0
     178  hru00178                   hru       178     5.1069E-4                 0
     179  hru00179                   hru       179     1.0607E-3                 0
     180  hru00180                   hru       180     1.1785E-4                 0
     181  hru00181                   hru       181     3.9283E-5                 0
     182  hru00182                   hru       182     1.0000E+0                 0
     183  hru00183                   hru       183     1.8749E-1                 0
     184  hru00184                   hru       184     3.2052E-2                 0
     185  hru00185                   hru       185     4.2814E-1                 0
     186  hru00186                   hru       186     9.5123E-2                 0
     187  hru00187                   hru       187     2.4987E-3                 0
     188  hru00188                   hru       188     5.1697E-4                 0
     189  hru00189                   hru       189     5.1697E-4                 0
     190  hru00190                   hru       190     1.8215E-1                 0
     191  hru00191                   hru       191     6.1951E-2                 0
     192  hru00192                   hru       192     5.3421E-3                 0
     193  hru00193                   hru       193     1.3786E-3                 0
     194  hru00194                   hru       194     6.8930E-4                 0
     195  hru00195                   hru       195     8.6162E-4                 0
     196  hru00196                   hru       196     2.5849E-4                 0
     197  hru00197                   hru       197     4.3081E-4                 0
     198  hru00198                   hru       198     2.5849E-4                 0
     199  hru00199                   hru       199     8.6162E-5                 0
     200  hru00200                   hru       200     2.5849E-4                 0
     201  hru00201                   hru       201     1.4959E-1                 0
     202  hru00202                   hru       202     1.2066E-1                 0
     203  hru00203                   hru       203     1.5702E-2                 0
     204  hru00204                   hru       204     8.2645E-4                 0
     205  hru00205                   hru       205     9.3388E-2                 0
     206  hru00206                   hru       206     9.9174E-2                 0
     207  hru00207                   hru       207     4.9587E-3                 0
     208  hru00208                   hru       208     1.6529E-3                 0
     209  hru00209                   hru       209     9.0909E-3                 0
     210  hru00210                   hru       210     2.0248E-1                 0
     211  hru00211                   hru       211     2.6116E-1                 0
     212  hru00212                   hru       212     1.5702E-2                 0
     213  hru00213                   hru       213     4.1322E-3                 0
     214  hru00214                   hru       214     5.7851E-3                 0
     215  hru00215                   hru       215     1.5702E-2                 0
     216  hru00216                   hru       216     7.4700E-2                 0
     217  hru00217                   hru       217     8.0065E-2                 0
     218  hru00218                   hru       218     1.3786E-2                 0
     219  hru00219                   hru       219     2.4227E-3                 0
     220  hru00220                   hru       220     7.4988E-4                 0
     221  hru00221                   hru       221     1.1594E-2                 0
     222  hru00222                   hru       222     8.1910E-3                 0
     223  hru00223                   hru       223     1.1537E-4                 0
     224  hru00224                   hru       224     1.9036E-3                 0
     225  hru00225                   hru       225     2.3073E-4                 0
     226  hru00226                   hru       226     5.0761E-3                 0
     227  hru00227                   hru       227     4.9608E-3                 0
     228  hru00228                   hru       228     5.7683E-4                 0
     229  hru00229                   hru       229     2.6661E-1                 0
     230  hru00230                   hru       230     1.0060E-1                 0
     231  hru00231                   hru       231     3.4610E-4                 0
     232  hru00232                   hru       232     5.7683E-5                 0
     233  hru00233                   hru       233     1.9612E-3                 0
     234  hru00234                   hru       234     2.4879E-1                 0
     235  hru00235                   hru       235     1.4888E-1                 0
     236  hru00236                   hru       236     1.3094E-2                 0
     237  hru00237                   hru       237     1.9612E-3                 0
     238  hru00238                   hru       238     4.0378E-4                 0
     239  hru00239                   hru       239     1.8459E-3                 0
     240  hru00240                   hru       240     3.4610E-4                 0
     241  hru00241                   hru       241     2.8842E-4                 0
     242  hru00242                   hru       242     7.4988E-3                 0
     243  hru00243                   hru       243     2.9419E-3                 0
     244  hru00244                   hru       244     1.2040E-1                 0
     245  hru00245                   hru       245     2.3734E-2                 0
     246  hru00246                   hru       246     6.5461E-2                 0
     247  hru00247                   hru       247     5.1020E-3                 0
     248  hru00248                   hru       248     1.5033E-3                 0
     249  hru00249                   hru       249     3.0990E-1                 0
     250  hru00250                   hru       250     4.3413E-2                 0
     251  hru00251                   hru       251     3.6534E-1                 0
     252  hru00252                   hru       252     1.0250E-2                 0
     253  hru00253                   hru       253     2.0044E-3                 0
     254  hru00254                   hru       254     1.1434E-2                 0
     255  hru00255                   hru       255     2.3688E-2                 0
     256  hru00256                   hru       256     1.0933E-3                 0
     257  hru00257                   hru       257     1.3211E-3                 0
     258  hru00258                   hru       258     8.6552E-4                 0
     259  hru00259                   hru       259     9.1108E-3                 0
     260  hru00260                   hru       260     5.1931E-3                 0
     261  hru00261                   hru       261     4.5554E-5                 0
     262  hru00262                   hru       262     4.5554E-5                 0
     263  hru00263                   hru       263     9.1108E-5                 0
     264  hru00264                   hru       264     2.1286E-2                 0
     265  hru00265                   hru       265     6.6998E-2                 0
     266  hru00266                   hru       266     5.6435E-2                 0
     267  hru00267                   hru       267     9.9513E-3                 0
     268  hru00268                   hru       268     9.8715E-3                 0
     269  hru00269                   hru       269     1.7894E-1                 0
     270  hru00270                   hru       270     3.8038E-1                 0
     271  hru00271                   hru       271     2.0435E-2                 0
     272  hru00272                   hru       272     1.6763E-3                 0
     273  hru00273                   hru       273     1.8625E-4                 0
     274  hru00274                   hru       274     1.7513E-1                 0
     275  hru00275                   hru       275     2.8417E-2                 0
     276  hru00276                   hru       276     7.1841E-4                 0
     277  hru00277                   hru       277     1.3304E-4                 0
     278  hru00278                   hru       278     1.0643E-4                 0
     279  hru00279                   hru       279     1.3996E-2                 0
     280  hru00280                   hru       280     1.7295E-3                 0
     281  hru00281                   hru       281     2.6608E-5                 0
     282  hru00282                   hru       282     1.7535E-2                 0
     283  hru00283                   hru       283     7.1841E-4                 0
     284  hru00284                   hru       284     4.9490E-3                 0
     285  hru00285                   hru       285     1.0643E-4                 0
     286  hru00286                   hru       286     1.0244E-2                 0
     287  hru00287                   hru       287     2.6608E-5                 0
     288  hru00288                   hru       288     9.6795E-2                 0
     289  hru00289                   hru       289     6.2857E-2                 0
     290  hru00290                   hru       290     2.6939E-2                 0
     291  hru00291                   hru       291     1.1881E-2                 0
     292  hru00292                   hru       292     8.8414E-3                 0
     293  hru00293                   hru       293     2.6925E-1                 0
     294  hru00294                   hru       294     3.8004E-1                 0
     295  hru00295                   hru       295     1.5933E-2                 0
     296  hru00296                   hru       296     1.9801E-3                 0
     297  hru00297                   hru       297     3.2234E-4                 0
     298  hru00298                   hru       298     8.2842E-2                 0
     299  hru00299                   hru       299     3.7115E-2                 0
     300  hru00300                   hru       300     5.9864E-4                 0
     301  hru00301                   hru       301     4.6049E-5                 0
     302  hru00302                   hru       302     3.4537E-3                 0
     303  hru00303                   hru       303     1.1052E-3                 0
     304  hru00304                   hru       304     9.9015E-3                 0
     305  hru00305                   hru       305     1.1672E-2                 0
     306  hru00306                   hru       306     6.4166E-3                 0
     307  hru00307                   hru       307     2.8543E-2                 0
     308  hru00308                   hru       308     3.7338E-2                 0
     309  hru00309                   hru       309     2.6541E-1                 0
     310  hru00310                   hru       310     1.3514E-1                 0
     311  hru00311                   hru       311     3.5955E-3                 0
     312  hru00312                   hru       312     4.4253E-4                 0
     313  hru00313                   hru       313     1.8498E-1                 0
     314  hru00314                   hru       314     4.9286E-2                 0
     315  hru00315                   hru       315     2.2126E-4                 0
     316  hru00316                   hru       316     5.5316E-5                 0
     317  hru00317                   hru       317     1.8199E-2                 0
     318  hru00318                   hru       318     8.1370E-2                 0
     319  hru00319                   hru       319     5.5316E-5                 0
     320  hru00320                   hru       320     5.7031E-2                 0
     321  hru00321                   hru       321     6.5273E-3                 0
     322  hru00322                   hru       322     7.4676E-3                 0
     323  hru00323                   hru       323     5.5316E-4                 0
     324  hru00324                   hru       324     1.1063E-2                 0
     325  hru00325                   hru       325     8.4744E-2                 0
     326  hru00326                   hru       326     1.0754E-2                 0
     327  hru00327                   hru       327     3.3452E-2                 0
     328  hru00328                   hru       328     2.8732E-4                 0
     329  hru00329                   hru       329     1.4161E-2                 0
     330  hru00330                   hru       330     2.5079E-2                 0
     331  hru00331                   hru       331     4.1046E-5                 0
     332  hru00332                   hru       332     5.5687E-1                 0
     333  hru00333                   hru       333     1.6788E-1                 0
     334  hru00334                   hru       334     2.4628E-3                 0
     335  hru00335                   hru       335     1.6418E-4                 0
     336  hru00336                   hru       336     4.2236E-2                 0
     337  hru00337                   hru       337     2.5284E-2                 0
     338  hru00338                   hru       338     4.5150E-4                 0
     339  hru00339                   hru       339     3.6982E-2                 0
     340  hru00340                   hru       340     4.6382E-3                 0
     341  hru00341                   hru       341     6.1979E-3                 0
     342  hru00342                   hru       342     5.7464E-4                 0
     343  hru00343                   hru       343     4.1046E-5                 0
     344  hru00344                   hru       344     1.1903E-2                 0
     345  hru00345                   hru       345     2.6269E-3                 0
     346  hru00346                   hru       346     1.1903E-3                 0
     347  hru00347                   hru       347     4.9255E-4                 0
     348  hru00348                   hru       348     3.1605E-3                 0
     349  hru00349                   hru       349     5.3360E-4                 0
     350  hru00350                   hru       350     8.2092E-5                 0
     351  hru00351                   hru       351     6.5673E-4                 0
     352  hru00352                   hru       352     4.0635E-3                 0
     353  hru00353                   hru       353     5.7054E-3                 0
     354  hru00354                   hru       354     3.9609E-2                 0
     355  hru00355                   hru       355     1.8060E-3                 0