aqu_catunit.ele: written by SWAT+ editor v2.3.1 on 2023-08-15 15:10 for SWAT+ rev.60.5.7
      id  name                   obj_typ  obj_typ_no      bsn_frac      sub_frac      reg_frac  
       1  aqu011                     aqu           1       0.00288       0.00000       0.00000  
       2  aqu012                     aqu           2       0.00945       0.00000       0.00000  
       3  aqu021                     aqu           3       0.00225       0.00000       0.00000  
       4  aqu022                     aqu           4       0.00861       0.00000       0.00000  
       5  aqu031                     aqu           5       0.01239       0.00000       0.00000  
       6  aqu032                     aqu           6       0.02977       0.00000       0.00000  
       7  aqu041                     aqu           7       0.00310       0.00000       0.00000  
       8  aqu042                     aqu           8       0.00757       0.00000       0.00000  
       9  aqu051                     aqu           9       0.00297       0.00000       0.00000  
      10  aqu052                     aqu          10       0.00641       0.00000       0.00000  
      11  aqu061                     aqu          11       0.00882       0.00000       0.00000  
      12  aqu062                     aqu          12       0.02163       0.00000       0.00000  
      13  aqu071                     aqu          13       0.01149       0.00000       0.00000  
      14  aqu072                     aqu          14       0.02726       0.00000       0.00000  
      15  aqu081                     aqu          15       0.01020       0.00000       0.00000  
      16  aqu082                     aqu          16       0.02207       0.00000       0.00000  
      17  aqu091                     aqu          17       0.00223       0.00000       0.00000  
      18  aqu092                     aqu          18       0.00848       0.00000       0.00000  
      19  aqu101                     aqu          19       0.00454       0.00000       0.00000  
      20  aqu102                     aqu          20       0.00868       0.00000       0.00000  
      21  aqu111                     aqu          21       0.00115       0.00000       0.00000  
      22  aqu112                     aqu          22       0.00179       0.00000       0.00000  
      23  aqu121                     aqu          23       0.00135       0.00000       0.00000  
      24  aqu122                     aqu          24       0.00207       0.00000       0.00000  
      25  aqu131                     aqu          25       0.00587       0.00000       0.00000  
      26  aqu132                     aqu          26       0.01091       0.00000       0.00000  
      27  aqu141                     aqu          27       0.01324       0.00000       0.00000  
      28  aqu142                     aqu          28       0.02468       0.00000       0.00000  
      29  aqu151                     aqu          29       0.00231       0.00000       0.00000  
      30  aqu152                     aqu          30       0.00606       0.00000       0.00000  
      31  aqu161                     aqu          31       0.00367       0.00000       0.00000  
      32  aqu162                     aqu          32       0.01037       0.00000       0.00000  
      33  aqu171                     aqu          33       0.00348       0.00000       0.00000  
      34  aqu172                     aqu          34       0.00473       0.00000       0.00000  
      35  aqu181                     aqu          35       0.00849       0.00000       0.00000  
      36  aqu182                     aqu          36       0.01936       0.00000       0.00000  
      37  aqu191                     aqu          37       0.00597       0.00000       0.00000  
      38  aqu192                     aqu          38       0.01195       0.00000       0.00000  
      39  aqu201                     aqu          39       0.00327       0.00000       0.00000  
      40  aqu202                     aqu          40       0.00569       0.00000       0.00000  
      41  aqu211                     aqu          41       0.00276       0.00000       0.00000  
      42  aqu212                     aqu          42       0.00551       0.00000       0.00000  
      43  aqu221                     aqu          43       0.00431       0.00000       0.00000  
      44  aqu222                     aqu          44       0.01385       0.00000       0.00000  
      45  aqu231                     aqu          45       0.00447       0.00000       0.00000  
      46  aqu232                     aqu          46       0.01348       0.00000       0.00000  
      47  aqu241                     aqu          47       0.00426       0.00000       0.00000  
      48  aqu242                     aqu          48       0.00736       0.00000       0.00000  
      49  aqu251                     aqu          49       0.00604       0.00000       0.00000  
      50  aqu252                     aqu          50       0.01344       0.00000       0.00000  
      51  aqu261                     aqu          51       0.00419       0.00000       0.00000  
      52  aqu262                     aqu          52       0.01052       0.00000       0.00000  
      53  aqu271                     aqu          53       0.00348       0.00000       0.00000  
      54  aqu272                     aqu          54       0.00992       0.00000       0.00000  
      55  aqu281                     aqu          55       0.00328       0.00000       0.00000  
      56  aqu282                     aqu          56       0.00773       0.00000       0.00000  
      57  aqu291                     aqu          57       0.00206       0.00000       0.00000  
      58  aqu292                     aqu          58       0.00543       0.00000       0.00000  
      59  aqu301                     aqu          59       0.00204       0.00000       0.00000  
      60  aqu302                     aqu          60       0.00533       0.00000       0.00000  
      61  aqu311                     aqu          61       0.00335       0.00000       0.00000  
      62  aqu312                     aqu          62       0.01017       0.00000       0.00000  
      63  aqu321                     aqu          63       0.00649       0.00000       0.00000  
      64  aqu322                     aqu          64       0.01496       0.00000       0.00000  
      65  aqu331                     aqu          65       0.00470       0.00000       0.00000  
      66  aqu332                     aqu          66       0.01006       0.00000       0.00000  
      67  aqu341                     aqu          67       0.00381       0.00000       0.00000  
      68  aqu342                     aqu          68       0.01124       0.00000       0.00000  
      69  aqu351                     aqu          69       0.00280       0.00000       0.00000  
      70  aqu352                     aqu          70       0.00742       0.00000       0.00000  
      71  aqu361                     aqu          71       0.00410       0.00000       0.00000  
      72  aqu362                     aqu          72       0.01192       0.00000       0.00000  
      73  aqu371                     aqu          73       0.00218       0.00000       0.00000  
      74  aqu372                     aqu          74       0.00384       0.00000       0.00000  
      75  aqu381                     aqu          75       0.00297       0.00000       0.00000  
      76  aqu382                     aqu          76       0.00865       0.00000       0.00000  
      77  aqu391                     aqu          77       0.00132       0.00000       0.00000  
      78  aqu392                     aqu          78       0.00181       0.00000       0.00000  
      79  aqu401                     aqu          79       0.00209       0.00000       0.00000  
      80  aqu402                     aqu          80       0.00300       0.00000       0.00000  
      81  aqu411                     aqu          81       0.00197       0.00000       0.00000  
      82  aqu412                     aqu          82       0.00782       0.00000       0.00000  
      83  aqu421                     aqu          83       0.00280       0.00000       0.00000  
      84  aqu422                     aqu          84       0.00951       0.00000       0.00000  
      85  aqu431                     aqu          85       0.00853       0.00000       0.00000  
      86  aqu432                     aqu          86       0.02252       0.00000       0.00000  
      87  aqu441                     aqu          87       0.00316       0.00000       0.00000  
      88  aqu442                     aqu          88       0.00554       0.00000       0.00000  
      89  aqu451                     aqu          89       0.00447       0.00000       0.00000  
      90  aqu452                     aqu          90       0.01102       0.00000       0.00000  
      91  aqu461                     aqu          91       0.00218       0.00000       0.00000  
      92  aqu462                     aqu          92       0.00657       0.00000       0.00000  
      93  aqu471                     aqu          93       0.00283       0.00000       0.00000  
      94  aqu472                     aqu          94       0.00648       0.00000       0.00000  
      95  aqu481                     aqu          95       0.00359       0.00000       0.00000  
      96  aqu482                     aqu          96       0.01134       0.00000       0.00000  
      97  aqu491                     aqu          97       0.00820       0.00000       0.00000  
      98  aqu492                     aqu          98       0.02646       0.00000       0.00000  
      99  aqu501                     aqu          99       0.00477       0.00000       0.00000  
     100  aqu502                     aqu         100       0.01530       0.00000       0.00000  
     101  aqu511                     aqu         101       0.00534       0.00000       0.00000  
     102  aqu512                     aqu         102       0.01135       0.00000       0.00000  
     103  aqu521                     aqu         103       0.00125       0.00000       0.00000  
     104  aqu522                     aqu         104       0.00257       0.00000       0.00000  
     105  aqu531                     aqu         105       0.00290       0.00000       0.00000  
     106  aqu532                     aqu         106       0.00908       0.00000       0.00000  
     107  aqu541                     aqu         107       0.00823       0.00000       0.00000  
     108  aqu542                     aqu         108       0.02347       0.00000       0.00000  
     109  aqu551                     aqu         109       0.01820       0.00000       0.00000  
     110  aqu552                     aqu         110       0.03065       0.00000       0.00000  
     111  aqu561                     aqu         111       0.00972       0.00000       0.00000  
     112  aqu562                     aqu         112       0.01609       0.00000       0.00000  
     113  aqu571                     aqu         113       0.00718       0.00000       0.00000  
     114  aqu572                     aqu         114       0.01914       0.00000       0.00000  
     115  aqu581                     aqu         115       0.01631       0.00000       0.00000  
     116  aqu582                     aqu         116       0.02278       0.00000       0.00000  
     117  aqu591                     aqu         117       0.00815       0.00000       0.00000  
     118  aqu592                     aqu         118       0.01905       0.00000       0.00000  
     119  aqu_deep039                aqu         119       1.00000       0.00000       0.00000  
