channel-lte.cha: written by SWAT+ editor v2.3.1 on 2023-08-15 15:10 for SWAT+ rev.60.5.7
      id  name                       cha_ini           cha_hyd           cha_sed           cha_nut  
       1  cha001                    initcha1         hydcha001              null           nutcha1  
       2  cha002                    initcha1         hydcha002              null           nutcha1  
       3  cha003                    initcha1         hydcha003              null           nutcha1  
       4  cha004                    initcha1         hydcha004              null           nutcha1  
       5  cha005                    initcha1         hydcha005              null           nutcha1  
       6  cha006                    initcha1         hydcha006              null           nutcha1  
       7  cha007                    initcha1         hydcha007              null           nutcha1  
       8  cha008                    initcha1         hydcha008              null           nutcha1  
       9  cha009                    initcha1         hydcha009              null           nutcha1  
      10  cha011                    initcha1         hydcha011              null           nutcha1  
      11  cha012                    initcha1         hydcha012              null           nutcha1  
      12  cha013                    initcha1         hydcha013              null           nutcha1  
      13  cha015                    initcha1         hydcha015              null           nutcha1  
      14  cha016                    initcha1         hydcha016              null           nutcha1  
      15  cha017                    initcha1         hydcha017              null           nutcha1  
      16  cha018                    initcha1         hydcha018              null           nutcha1  
      17  cha019                    initcha1         hydcha019              null           nutcha1  
      18  cha020                    initcha1         hydcha020              null           nutcha1  
      19  cha021                    initcha1         hydcha021              null           nutcha1  
      20  cha022                    initcha1         hydcha022              null           nutcha1  
      21  cha023                    initcha1         hydcha023              null           nutcha1  
      22  cha024                    initcha1         hydcha024              null           nutcha1  
      23  cha025                    initcha1         hydcha025              null           nutcha1  
      24  cha026                    initcha1         hydcha026              null           nutcha1  
      25  cha027                    initcha1         hydcha027              null           nutcha1  
      26  cha028                    initcha1         hydcha028              null           nutcha1  
      27  cha029                    initcha1         hydcha029              null           nutcha1  
      28  cha031                    initcha1         hydcha031              null           nutcha1  
      29  cha032                    initcha1         hydcha032              null           nutcha1  
      30  cha033                    initcha1         hydcha033              null           nutcha1  
      31  cha034                    initcha1         hydcha034              null           nutcha1  
      32  cha036                    initcha1         hydcha036              null           nutcha1  
      33  cha038                    initcha1         hydcha038              null           nutcha1  
      34  cha039                    initcha1         hydcha039              null           nutcha1  
      35  cha041                    initcha1         hydcha041              null           nutcha1  
      36  cha042                    initcha1         hydcha042              null           nutcha1  
      37  cha043                    initcha1         hydcha043              null           nutcha1  
      38  cha044                    initcha1         hydcha044              null           nutcha1  
      39  cha045                    initcha1         hydcha045              null           nutcha1  
      40  cha046                    initcha1         hydcha046              null           nutcha1  
      41  cha047                    initcha1         hydcha047              null           nutcha1  
      42  cha048                    initcha1         hydcha048              null           nutcha1  
      43  cha049                    initcha1         hydcha049              null           nutcha1  
      44  cha052                    initcha1         hydcha052              null           nutcha1  
      45  cha053                    initcha1         hydcha053              null           nutcha1  
      46  cha054                    initcha1         hydcha054              null           nutcha1  
      47  cha055                    initcha1         hydcha055              null           nutcha1  
      48  cha056                    initcha1         hydcha056              null           nutcha1  
      49  cha057                    initcha1         hydcha057              null           nutcha1  
      50  cha059                    initcha1         hydcha059              null           nutcha1  
      51  cha060                    initcha1         hydcha060              null           nutcha1  
      52  cha061                    initcha1         hydcha061              null           nutcha1  
      53  cha062                    initcha1         hydcha062              null           nutcha1  
      54  cha064                    initcha1         hydcha064              null           nutcha1  
      55  cha065                    initcha1         hydcha065              null           nutcha1  
      56  cha066                    initcha1         hydcha066              null           nutcha1  
      57  cha067                    initcha1         hydcha067              null           nutcha1  
      58  cha068                    initcha1         hydcha068              null           nutcha1  
      59  cha069                    initcha1         hydcha069              null           nutcha1  
      60  cha070                    initcha1         hydcha070              null           nutcha1  
      61  cha071                    initcha1         hydcha071              null           nutcha1  
      62  cha072                    initcha1         hydcha072              null           nutcha1  
      63  cha073                    initcha1         hydcha073              null           nutcha1  
      64  cha074                    initcha1         hydcha074              null           nutcha1  
      65  cha075                    initcha1         hydcha075              null           nutcha1  
      66  cha076                    initcha1         hydcha076              null           nutcha1  
      67  cha077                    initcha1         hydcha077              null           nutcha1  
      68  cha078                    initcha1         hydcha078              null           nutcha1  
      69  cha079                    initcha1         hydcha079              null           nutcha1  
      70  cha080                    initcha1         hydcha080              null           nutcha1  
      71  cha081                    initcha1         hydcha081              null           nutcha1  
      72  cha082                    initcha1         hydcha082              null           nutcha1  
      73  cha083                    initcha1         hydcha083              null           nutcha1  
      74  cha084                    initcha1         hydcha084              null           nutcha1  
      75  cha085                    initcha1         hydcha085              null           nutcha1  
      76  cha086                    initcha1         hydcha086              null           nutcha1  
      77  cha089                    initcha1         hydcha089              null           nutcha1  
      78  cha091                    initcha1         hydcha091              null           nutcha1  
      79  cha092                    initcha1         hydcha092              null           nutcha1  
      80  cha093                    initcha1         hydcha093              null           nutcha1  
      81  cha094                    initcha1         hydcha094              null           nutcha1  
      82  cha095                    initcha1         hydcha095              null           nutcha1  
      83  cha096                    initcha1         hydcha096              null           nutcha1  
      84  cha097                    initcha1         hydcha097              null           nutcha1  
      85  cha099                    initcha1         hydcha099              null           nutcha1  
      86  cha100                    initcha1         hydcha100              null           nutcha1  
      87  cha102                    initcha1         hydcha102              null           nutcha1  
      88  cha103                    initcha1         hydcha103              null           nutcha1  
      89  cha104                    initcha1         hydcha104              null           nutcha1  
      90  cha106                    initcha1         hydcha106              null           nutcha1  
      91  cha109                    initcha1         hydcha109              null           nutcha1  
      92  cha111                    initcha1         hydcha111              null           nutcha1  
      93  cha113                    initcha1         hydcha113              null           nutcha1  
      94  cha114                    initcha1         hydcha114              null           nutcha1  
      95  cha115                    initcha1         hydcha115              null           nutcha1  
      96  cha120                    initcha1         hydcha120              null           nutcha1  
      97  cha121                    initcha1         hydcha121              null           nutcha1  
      98  cha122                    initcha1         hydcha122              null           nutcha1  
      99  cha123                    initcha1         hydcha123              null           nutcha1  
     100  cha124                    initcha1         hydcha124              null           nutcha1  
     101  cha125                    initcha1         hydcha125              null           nutcha1  
     102  cha126                    initcha1         hydcha126              null           nutcha1  
     103  cha128                    initcha1         hydcha128              null           nutcha1  
     104  cha129                    initcha1         hydcha129              null           nutcha1  
     105  cha133                    initcha1         hydcha133              null           nutcha1  
     106  cha134                    initcha1         hydcha134              null           nutcha1  
     107  cha135                    initcha1         hydcha135              null           nutcha1  
     108  cha137                    initcha1         hydcha137              null           nutcha1  
     109  cha138                    initcha1         hydcha138              null           nutcha1  
     110  cha140                    initcha1         hydcha140              null           nutcha1  
     111  cha141                    initcha1         hydcha141              null           nutcha1  
     112  cha146                    initcha1         hydcha146              null           nutcha1  
     113  cha149                    initcha1         hydcha149              null           nutcha1  
     114  cha150                    initcha1         hydcha150              null           nutcha1  
     115  cha153                    initcha1         hydcha153              null           nutcha1  
     116  cha154                    initcha1         hydcha154              null           nutcha1  
     117  cha156                    initcha1         hydcha156              null           nutcha1  
     118  cha157                    initcha1         hydcha157              null           nutcha1  
     119  cha159                    initcha1         hydcha159              null           nutcha1  
     120  cha161                    initcha1         hydcha161              null           nutcha1  
     121  cha166                    initcha1         hydcha166              null           nutcha1  
     122  cha168                    initcha1         hydcha168              null           nutcha1  
     123  cha169                    initcha1         hydcha169              null           nutcha1  
     124  cha170                    initcha1         hydcha170              null           nutcha1  
     125  cha171                    initcha1         hydcha171              null           nutcha1  
     126  cha172                    initcha1         hydcha172              null           nutcha1  
     127  cha174                    initcha1         hydcha174              null           nutcha1  
     128  cha175                    initcha1         hydcha175              null           nutcha1  
     129  cha176                    initcha1         hydcha176              null           nutcha1  
     130  cha177                    initcha1         hydcha177              null           nutcha1  
     131  cha178                    initcha1         hydcha178              null           nutcha1  
     132  cha180                    initcha1         hydcha180              null           nutcha1  
     133  cha181                    initcha1         hydcha181              null           nutcha1  
     134  cha182                    initcha1         hydcha182              null           nutcha1  
     135  cha183                    initcha1         hydcha183              null           nutcha1  
     136  cha184                    initcha1         hydcha184              null           nutcha1  
     137  cha185                    initcha1         hydcha185              null           nutcha1  
     138  cha186                    initcha1         hydcha186              null           nutcha1  
     139  cha187                    initcha1         hydcha187              null           nutcha1  
     140  cha188                    initcha1         hydcha188              null           nutcha1  
     141  cha189                    initcha1         hydcha189              null           nutcha1  
     142  cha190                    initcha1         hydcha190              null           nutcha1  
     143  cha191                    initcha1         hydcha191              null           nutcha1  
     144  cha192                    initcha1         hydcha192              null           nutcha1  
     145  cha195                    initcha1         hydcha195              null           nutcha1  
     146  cha196                    initcha1         hydcha196              null           nutcha1  
     147  cha197                    initcha1         hydcha197              null           nutcha1  
     148  cha198                    initcha1         hydcha198              null           nutcha1  
     149  cha199                    initcha1         hydcha199              null           nutcha1  
     150  cha200                    initcha1         hydcha200              null           nutcha1  
     151  cha201                    initcha1         hydcha201              null           nutcha1  
     152  cha202                    initcha1         hydcha202              null           nutcha1  
     153  cha204                    initcha1         hydcha204              null           nutcha1  
     154  cha206                    initcha1         hydcha206              null           nutcha1  
     155  cha207                    initcha1         hydcha207              null           nutcha1  
     156  cha208                    initcha1         hydcha208              null           nutcha1  
     157  cha209                    initcha1         hydcha209              null           nutcha1  
     158  cha210                    initcha1         hydcha210              null           nutcha1  
     159  cha211                    initcha1         hydcha211              null           nutcha1  
     160  cha212                    initcha1         hydcha212              null           nutcha1  
     161  cha213                    initcha1         hydcha213              null           nutcha1  
     162  cha214                    initcha1         hydcha214              null           nutcha1  
     163  cha215                    initcha1         hydcha215              null           nutcha1  
     164  cha217                    initcha1         hydcha217              null           nutcha1  
     165  cha219                    initcha1         hydcha219              null           nutcha1  
     166  cha220                    initcha1         hydcha220              null           nutcha1  
     167  cha221                    initcha1         hydcha221              null           nutcha1  
     168  cha222                    initcha1         hydcha222              null           nutcha1  
     169  cha224                    initcha1         hydcha224              null           nutcha1  
     170  cha225                    initcha1         hydcha225              null           nutcha1  
     171  cha226                    initcha1         hydcha226              null           nutcha1  
     172  cha227                    initcha1         hydcha227              null           nutcha1  
     173  cha228                    initcha1         hydcha228              null           nutcha1  
     174  cha229                    initcha1         hydcha229              null           nutcha1  
     175  cha230                    initcha1         hydcha230              null           nutcha1  
     176  cha231                    initcha1         hydcha231              null           nutcha1  
     177  cha232                    initcha1         hydcha232              null           nutcha1  
     178  cha234                    initcha1         hydcha234              null           nutcha1  
     179  cha235                    initcha1         hydcha235              null           nutcha1  
     180  cha236                    initcha1         hydcha236              null           nutcha1  
     181  cha237                    initcha1         hydcha237              null           nutcha1  
     182  cha238                    initcha1         hydcha238              null           nutcha1  
     183  cha239                    initcha1         hydcha239              null           nutcha1  
     184  cha240                    initcha1         hydcha240              null           nutcha1  
     185  cha241                    initcha1         hydcha241              null           nutcha1  
     186  cha243                    initcha1         hydcha243              null           nutcha1  
     187  cha245                    initcha1         hydcha245              null           nutcha1  
     188  cha246                    initcha1         hydcha246              null           nutcha1  
     189  cha248                    initcha1         hydcha248              null           nutcha1  
     190  cha250                    initcha1         hydcha250              null           nutcha1  
     191  cha252                    initcha1         hydcha252              null           nutcha1  
     192  cha255                    initcha1         hydcha255              null           nutcha1  
     193  cha256                    initcha1         hydcha256              null           nutcha1  
     194  cha257                    initcha1         hydcha257              null           nutcha1  
     195  cha258                    initcha1         hydcha258              null           nutcha1  
     196  cha259                    initcha1         hydcha259              null           nutcha1  
     197  cha260                    initcha1         hydcha260              null           nutcha1  
     198  cha261                    initcha1         hydcha261              null           nutcha1  
     199  cha262                    initcha1         hydcha262              null           nutcha1  
     200  cha263                    initcha1         hydcha263              null           nutcha1  
     201  cha264                    initcha1         hydcha264              null           nutcha1  
     202  cha265                    initcha1         hydcha265              null           nutcha1  
     203  cha267                    initcha1         hydcha267              null           nutcha1  
     204  cha268                    initcha1         hydcha268              null           nutcha1  
     205  cha269                    initcha1         hydcha269              null           nutcha1  
     206  cha270                    initcha1         hydcha270              null           nutcha1  
     207  cha271                    initcha1         hydcha271              null           nutcha1  
     208  cha272                    initcha1         hydcha272              null           nutcha1  
     209  cha273                    initcha1         hydcha273              null           nutcha1  
     210  cha274                    initcha1         hydcha274              null           nutcha1  
     211  cha275                    initcha1         hydcha275              null           nutcha1  
     212  cha276                    initcha1         hydcha276              null           nutcha1  
     213  cha277                    initcha1         hydcha277              null           nutcha1  
     214  cha278                    initcha1         hydcha278              null           nutcha1  
     215  cha279                    initcha1         hydcha279              null           nutcha1  
     216  cha280                    initcha1         hydcha280              null           nutcha1  
     217  cha281                    initcha1         hydcha281              null           nutcha1  
     218  cha283                    initcha1         hydcha283              null           nutcha1  
     219  cha285                    initcha1         hydcha285              null           nutcha1  
     220  cha286                    initcha1         hydcha286              null           nutcha1  
     221  cha287                    initcha1         hydcha287              null           nutcha1  
     222  cha289                    initcha1         hydcha289              null           nutcha1  
     223  cha291                    initcha1         hydcha291              null           nutcha1  
     224  cha292                    initcha1         hydcha292              null           nutcha1  
     225  cha293                    initcha1         hydcha293              null           nutcha1  
     226  cha295                    initcha1         hydcha295              null           nutcha1  
     227  cha297                    initcha1         hydcha297              null           nutcha1  
     228  cha298                    initcha1         hydcha298              null           nutcha1  
     229  cha299                    initcha1         hydcha299              null           nutcha1  
     230  cha301                    initcha1         hydcha301              null           nutcha1  
     231  cha302                    initcha1         hydcha302              null           nutcha1  
     232  cha303                    initcha1         hydcha303              null           nutcha1  
     233  cha304                    initcha1         hydcha304              null           nutcha1  
     234  cha305                    initcha1         hydcha305              null           nutcha1  
     235  cha307                    initcha1         hydcha307              null           nutcha1  
     236  cha308                    initcha1         hydcha308              null           nutcha1  
     237  cha309                    initcha1         hydcha309              null           nutcha1  
     238  cha310                    initcha1         hydcha310              null           nutcha1  
     239  cha311                    initcha1         hydcha311              null           nutcha1  
     240  cha312                    initcha1         hydcha312              null           nutcha1  
     241  cha313                    initcha1         hydcha313              null           nutcha1  
     242  cha314                    initcha1         hydcha314              null           nutcha1  
     243  cha315                    initcha1         hydcha315              null           nutcha1  
     244  cha316                    initcha1         hydcha316              null           nutcha1  
     245  cha317                    initcha1         hydcha317              null           nutcha1  
     246  cha318                    initcha1         hydcha318              null           nutcha1  
     247  cha319                    initcha1         hydcha319              null           nutcha1  
     248  cha320                    initcha1         hydcha320              null           nutcha1  
     249  cha321                    initcha1         hydcha321              null           nutcha1  
     250  cha322                    initcha1         hydcha322              null           nutcha1  
     251  cha323                    initcha1         hydcha323              null           nutcha1  
     252  cha324                    initcha1         hydcha324              null           nutcha1  
     253  cha325                    initcha1         hydcha325              null           nutcha1  
     254  cha326                    initcha1         hydcha326              null           nutcha1  
     255  cha328                    initcha1         hydcha328              null           nutcha1  
     256  cha330                    initcha1         hydcha330              null           nutcha1  
     257  cha331                    initcha1         hydcha331              null           nutcha1  
     258  cha332                    initcha1         hydcha332              null           nutcha1  
     259  cha333                    initcha1         hydcha333              null           nutcha1  
     260  cha334                    initcha1         hydcha334              null           nutcha1  
     261  cha336                    initcha1         hydcha336              null           nutcha1  
     262  cha337                    initcha1         hydcha337              null           nutcha1  
     263  cha338                    initcha1         hydcha338              null           nutcha1  
     264  cha341                    initcha1         hydcha341              null           nutcha1  
     265  cha342                    initcha1         hydcha342              null           nutcha1  
     266  cha343                    initcha1         hydcha343              null           nutcha1  
     267  cha344                    initcha1         hydcha344              null           nutcha1  
     268  cha346                    initcha1         hydcha346              null           nutcha1  
     269  cha348                    initcha1         hydcha348              null           nutcha1  
     270  cha349                    initcha1         hydcha349              null           nutcha1  
     271  cha350                    initcha1         hydcha350              null           nutcha1  
     272  cha351                    initcha1         hydcha351              null           nutcha1  
     273  cha352                    initcha1         hydcha352              null           nutcha1  
     274  cha353                    initcha1         hydcha353              null           nutcha1  
     275  cha354                    initcha1         hydcha354              null           nutcha1  
     276  cha355                    initcha1         hydcha355              null           nutcha1  
     277  cha356                    initcha1         hydcha356              null           nutcha1  
     278  cha357                    initcha1         hydcha357              null           nutcha1  
     279  cha358                    initcha1         hydcha358              null           nutcha1  
     280  cha359                    initcha1         hydcha359              null           nutcha1  
     281  cha360                    initcha1         hydcha360              null           nutcha1  
     282  cha361                    initcha1         hydcha361              null           nutcha1  
     283  cha362                    initcha1         hydcha362              null           nutcha1  
     284  cha364                    initcha1         hydcha364              null           nutcha1  
     285  cha365                    initcha1         hydcha365              null           nutcha1  
     286  cha366                    initcha1         hydcha366              null           nutcha1  
     287  cha367                    initcha1         hydcha367              null           nutcha1  
     288  cha368                    initcha1         hydcha368              null           nutcha1  
     289  cha369                    initcha1         hydcha369              null           nutcha1  
     290  cha370                    initcha1         hydcha370              null           nutcha1  
     291  cha371                    initcha1         hydcha371              null           nutcha1  
     292  cha372                    initcha1         hydcha372              null           nutcha1  