hyd-sed-lte.cha: written by SWAT+ editor v2.3.1 on 2023-08-15 15:10 for SWAT+ rev.60.5.7
name                         order            wd            dp           slp           len          mann             k     erod_fact      cov_fact          sinu        eq_slp           d50          clay        carbon        dry_bd      side_slp      bed_load           fps           fpn        n_conc        p_conc         p_bio  description
hydcha001                        3       1.98196       0.17309       0.00016       0.34980       0.05000       1.00000       0.01000       0.00500       1.05000       0.00100      12.00000      50.00000       0.04000       1.00000       0.50000       0.50000       0.00001       0.10000       0.00000       0.00000       0.00000  
hydcha002                        2       1.77818       0.16102       0.02042       0.28970       0.05000       1.00000       0.01000       0.00500       1.05000       0.00100      12.00000      50.00000       0.04000       1.00000       0.50000       0.50000       0.00001       0.10000       0.00000       0.00000       0.00000  
hydcha003                        2       1.38247       0.13614       0.03639       0.68700       0.05000       1.00000       0.01000       0.00500       1.05000       0.00100      12.00000      50.00000       0.04000       1.00000       0.50000       0.50000       0.00001       0.10000       0.00000       0.00000       0.00000  
hydcha004                        4       4.49450       0.29877       0.00017       0.22240       0.05000       1.00000       0.01000       0.00500       1.05000       0.00100      12.00000      50.00000       0.04000       1.00000       0.50000       0.50000       0.00001       0.10000       0.00000       0.00000       0.00000  
hydcha005                        4       4.44033       0.29637       0.00017       0.57210       0.05000       1.00000       0.01000       0.00500       1.05000       0.00100      12.00000      50.00000       0.04000       1.00000       0.50000       0.50000       0.00001       0.10000       0.00000       0.00000       0.00000  
hydcha006                        3       2.93496       0.22488       0.00554       0.14480       0.05000       1.00000       0.01000       0.00500       1.05000       0.00100      12.00000      50.00000       0.04000       1.00000       0.50000       0.50000       0.00001       0.10000       0.00000       0.00000       0.00000  
hydcha007                        3       2.89126       0.22264       0.01424       0.84430       0.05000       1.00000       0.01000       0.00500       1.05000       0.00100      12.00000      50.00000       0.04000       1.00000       0.50000       0.50000       0.00001       0.10000       0.00000       0.00000       0.00000  
hydcha008                        3       2.54758       0.20463       0.02365       1.18670       0.05000       1.00000       0.01000       0.00500       1.05000       0.00100      12.00000      50.00000       0.04000       1.00000       0.50000       0.50000       0.00001       0.10000       0.00000       0.00000       0.00000  
hydcha009                        3       4.40817       0.29493       0.00173       0.59180       0.05000       1.00000       0.01000       0.00500       1.05000       0.00100      12.00000      50.00000       0.04000       1.00000       0.50000       0.50000       0.00001       0.10000       0.00000       0.00000       0.00000  
hydcha011                        2       2.07875       0.17868       0.03740       0.63940       0.05000       1.00000       0.01000       0.00500       1.05000       0.00100      12.00000      50.00000       0.04000       1.00000       0.50000       0.50000       0.00001       0.10000       0.00000       0.00000       0.00000  
hydcha012                        3       4.16924       0.28418       0.01182       0.75940       0.05000       1.00000       0.01000       0.00500       1.05000       0.00100      12.00000      50.00000       0.04000       1.00000       0.50000       0.50000       0.00001       0.10000       0.00000       0.00000       0.00000  
hydcha013                        2       1.94087       0.17069       0.02437       0.93950       0.05000       1.00000       0.01000       0.00500       1.05000       0.00100      12.00000      50.00000       0.04000       1.00000       0.50000       0.50000       0.00001       0.10000       0.00000       0.00000       0.00000  
hydcha015                        2       1.65554       0.15352       0.00777       0.24210       0.05000       1.00000       0.01000       0.00500       1.05000       0.00100      12.00000      50.00000       0.04000       1.00000       0.50000       0.50000       0.00001       0.10000       0.00000       0.00000       0.00000  
hydcha016                        2       1.48378       0.14271       0.04688       0.55460       0.05000       1.00000       0.01000       0.00500       1.05000       0.00100      12.00000      50.00000       0.04000       1.00000       0.50000       0.50000       0.00001       0.10000       0.00000       0.00000       0.00000  
hydcha017                        3       2.36390       0.19467       0.01736       0.92180       0.05000       1.00000       0.01000       0.00500       1.05000       0.00100      12.00000      50.00000       0.04000       1.00000       0.50000       0.50000       0.00001       0.10000       0.00000       0.00000       0.00000  
hydcha018                        2       1.29757       0.13051       0.02766       0.68700       0.05000       1.00000       0.01000       0.00500       1.05000       0.00100      12.00000      50.00000       0.04000       1.00000       0.50000       0.50000       0.00001       0.10000       0.00000       0.00000       0.00000  
hydcha019                        2       1.30588       0.13106       0.00719       0.41700       0.05000       1.00000       0.01000       0.00500       1.05000       0.00100      12.00000      50.00000       0.04000       1.00000       0.50000       0.50000       0.00001       0.10000       0.00000       0.00000       0.00000  
hydcha020                        2       1.78211       0.16125       0.00005       0.16240       0.05000       1.00000       0.01000       0.00500       1.05000       0.00100      12.00000      50.00000       0.04000       1.00000       0.50000       0.50000       0.00001       0.10000       0.00000       0.00000       0.00000  
hydcha021                        2       0.84965       0.09841       0.00505       0.79150       0.05000       1.00000       0.01000       0.00500       1.05000       0.00100      12.00000      50.00000       0.04000       1.00000       0.50000       0.50000       0.00001       0.10000       0.00000       0.00000       0.00000  
hydcha022                        2       2.68668       0.21201       0.00001       0.62700       0.05000       1.00000       0.01000       0.00500       1.05000       0.00100      12.00000      50.00000       0.04000       1.00000       0.50000       0.50000       0.00001       0.10000       0.00000       0.00000       0.00000  
hydcha023                        2       1.71615       0.15725       0.01264       1.42370       0.05000       1.00000       0.01000       0.00500       1.05000       0.00100      12.00000      50.00000       0.04000       1.00000       0.50000       0.50000       0.00001       0.10000       0.00000       0.00000       0.00000  
hydcha024                        2       0.93774       0.10510       0.02584       0.38700       0.05000       1.00000       0.01000       0.00500       1.05000       0.00100      12.00000      50.00000       0.04000       1.00000       0.50000       0.50000       0.00001       0.10000       0.00000       0.00000       0.00000  
hydcha025                        1       0.59039       0.07720       0.02608       0.65180       0.05000       1.00000       0.01000       0.00500       1.05000       0.00100      12.00000      50.00000       0.04000       1.00000       0.50000       0.50000       0.00001       0.10000       0.00000       0.00000       0.00000  
hydcha026                        1       0.41674       0.06121       0.01435       0.41700       0.05000       1.00000       0.01000       0.00500       1.05000       0.00100      12.00000      50.00000       0.04000       1.00000       0.50000       0.50000       0.00001       0.10000       0.00000       0.00000       0.00000  
hydcha027                        1       0.72472       0.08851       0.01534       0.65180       0.05000       1.00000       0.01000       0.00500       1.05000       0.00100      12.00000      50.00000       0.04000       1.00000       0.50000       0.50000       0.00001       0.10000       0.00000       0.00000       0.00000  
hydcha028                        1       0.51692       0.07066       0.05635       0.35490       0.05000       1.00000       0.01000       0.00500       1.05000       0.00100      12.00000      50.00000       0.04000       1.00000       0.50000       0.50000       0.00001       0.10000       0.00000       0.00000       0.00000  
hydcha029                        1       0.43569       0.06305       0.03419       0.20490       0.05000       1.00000       0.01000       0.00500       1.05000       0.00100      12.00000      50.00000       0.04000       1.00000       0.50000       0.50000       0.00001       0.10000       0.00000       0.00000       0.00000  
hydcha031                        3       4.51145       0.29952       0.00809       0.24730       0.05000       1.00000       0.01000       0.00500       1.05000       0.00100      12.00000      50.00000       0.04000       1.00000       0.50000       0.50000       0.00001       0.10000       0.00000       0.00000       0.00000  
hydcha032                        3       4.43452       0.29611       0.00010       0.37460       0.05000       1.00000       0.01000       0.00500       1.05000       0.00100      12.00000      50.00000       0.04000       1.00000       0.50000       0.50000       0.00001       0.10000       0.00000       0.00000       0.00000  
hydcha033                        3       4.34089       0.29192       0.00016       0.35490       0.05000       1.00000       0.01000       0.00500       1.05000       0.00100      12.00000      50.00000       0.04000       1.00000       0.50000       0.50000       0.00001       0.10000       0.00000       0.00000       0.00000  
hydcha034                        3       4.25690       0.28815       0.00871       0.56480       0.05000       1.00000       0.01000       0.00500       1.05000       0.00100      12.00000      50.00000       0.04000       1.00000       0.50000       0.50000       0.00001       0.10000       0.00000       0.00000       0.00000  
hydcha036                        3       4.00847       0.27682       0.00852       1.17420       0.05000       1.00000       0.01000       0.00500       1.05000       0.00100      12.00000      50.00000       0.04000       1.00000       0.50000       0.50000       0.00001       0.10000       0.00000       0.00000       0.00000  
hydcha038                        3       3.44587       0.25027       0.02918       0.85670       0.05000       1.00000       0.01000       0.00500       1.05000       0.00100      12.00000      50.00000       0.04000       1.00000       0.50000       0.50000       0.00001       0.10000       0.00000       0.00000       0.00000  
hydcha039                        3       3.33911       0.24508       0.04247       0.77700       0.05000       1.00000       0.01000       0.00500       1.05000       0.00100      12.00000      50.00000       0.04000       1.00000       0.50000       0.50000       0.00001       0.10000       0.00000       0.00000       0.00000  
hydcha041                        3       2.95185       0.22574       0.02225       0.31460       0.05000       1.00000       0.01000       0.00500       1.05000       0.00100      12.00000      50.00000       0.04000       1.00000       0.50000       0.50000       0.00001       0.10000       0.00000       0.00000       0.00000  
hydcha042                        3       3.23644       0.24003       0.01071       0.56180       0.05000       1.00000       0.01000       0.00500       1.05000       0.00100      12.00000      50.00000       0.04000       1.00000       0.50000       0.50000       0.00001       0.10000       0.00000       0.00000       0.00000  
hydcha043                        3       2.89532       0.22285       0.00008       0.21730       0.05000       1.00000       0.01000       0.00500       1.05000       0.00100      12.00000      50.00000       0.04000       1.00000       0.50000       0.50000       0.00001       0.10000       0.00000       0.00000       0.00000  
hydcha044                        3       2.79542       0.21770       0.06789       0.57420       0.05000       1.00000       0.01000       0.00500       1.05000       0.00100      12.00000      50.00000       0.04000       1.00000       0.50000       0.50000       0.00001       0.10000       0.00000       0.00000       0.00000  
hydcha045                        3       2.83435       0.21971       0.01325       0.58970       0.05000       1.00000       0.01000       0.00500       1.05000       0.00100      12.00000      50.00000       0.04000       1.00000       0.50000       0.50000       0.00001       0.10000       0.00000       0.00000       0.00000  
hydcha046                        3       3.02545       0.22948       0.00806       0.49240       0.05000       1.00000       0.01000       0.00500       1.05000       0.00100      12.00000      50.00000       0.04000       1.00000       0.50000       0.50000       0.00001       0.10000       0.00000       0.00000       0.00000  
hydcha047                        3       2.69820       0.21262       0.01909       0.36730       0.05000       1.00000       0.01000       0.00500       1.05000       0.00100      12.00000      50.00000       0.04000       1.00000       0.50000       0.50000       0.00001       0.10000       0.00000       0.00000       0.00000  
hydcha048                        3       2.57844       0.20628       0.04025       0.39730       0.05000       1.00000       0.01000       0.00500       1.05000       0.00100      12.00000      50.00000       0.04000       1.00000       0.50000       0.50000       0.00001       0.10000       0.00000       0.00000       0.00000  
hydcha049                        3       2.79459       0.21765       0.00404       0.49450       0.05000       1.00000       0.01000       0.00500       1.05000       0.00100      12.00000      50.00000       0.04000       1.00000       0.50000       0.50000       0.00001       0.10000       0.00000       0.00000       0.00000  
hydcha052                        3       2.58502       0.20663       0.02644       1.13390       0.05000       1.00000       0.01000       0.00500       1.05000       0.00100      12.00000      50.00000       0.04000       1.00000       0.50000       0.50000       0.00001       0.10000       0.00000       0.00000       0.00000  
hydcha053                        3       2.45938       0.19988       0.00591       0.34240       0.05000       1.00000       0.01000       0.00500       1.05000       0.00100      12.00000      50.00000       0.04000       1.00000       0.50000       0.50000       0.00001       0.10000       0.00000       0.00000       0.00000  
hydcha054                        2       1.64845       0.15309       0.00014       0.11490       0.05000       1.00000       0.01000       0.00500       1.05000       0.00100      12.00000      50.00000       0.04000       1.00000       0.50000       0.50000       0.00001       0.10000       0.00000       0.00000       0.00000  
hydcha055                        3       2.30905       0.19165       0.01183       0.25240       0.05000       1.00000       0.01000       0.00500       1.05000       0.00100      12.00000      50.00000       0.04000       1.00000       0.50000       0.50000       0.00001       0.10000       0.00000       0.00000       0.00000  
hydcha056                        3       2.22195       0.18680       0.04682       0.66210       0.05000       1.00000       0.01000       0.00500       1.05000       0.00100      12.00000      50.00000       0.04000       1.00000       0.50000       0.50000       0.00001       0.10000       0.00000       0.00000       0.00000  
hydcha057                        3       2.04307       0.17663       0.01959       0.45940       0.05000       1.00000       0.01000       0.00500       1.05000       0.00100      12.00000      50.00000       0.04000       1.00000       0.50000       0.50000       0.00001       0.10000       0.00000       0.00000       0.00000  
hydcha059                        3       1.91100       0.16894       0.03316       0.30210       0.05000       1.00000       0.01000       0.00500       1.05000       0.00100      12.00000      50.00000       0.04000       1.00000       0.50000       0.50000       0.00001       0.10000       0.00000       0.00000       0.00000  
hydcha060                        2       1.52714       0.14548       0.03430       0.31970       0.05000       1.00000       0.01000       0.00500       1.05000       0.00100      12.00000      50.00000       0.04000       1.00000       0.50000       0.50000       0.00001       0.10000       0.00000       0.00000       0.00000  
hydcha061                        2       1.40101       0.13735       0.10176       0.29480       0.05000       1.00000       0.01000       0.00500       1.05000       0.00100      12.00000      50.00000       0.04000       1.00000       0.50000       0.50000       0.00001       0.10000       0.00000       0.00000       0.00000  
hydcha062                        2       1.51090       0.14445       0.05145       1.26340       0.05000       1.00000       0.01000       0.00500       1.05000       0.00100      12.00000      50.00000       0.04000       1.00000       0.50000       0.50000       0.00001       0.10000       0.00000       0.00000       0.00000  
hydcha064                        3       1.82778       0.16400       0.02568       0.66220       0.05000       1.00000       0.01000       0.00500       1.05000       0.00100      12.00000      50.00000       0.04000       1.00000       0.50000       0.50000       0.00001       0.10000       0.00000       0.00000       0.00000  
hydcha065                        2       1.45118       0.14061       0.05161       0.63940       0.05000       1.00000       0.01000       0.00500       1.05000       0.00100      12.00000      50.00000       0.04000       1.00000       0.50000       0.50000       0.00001       0.10000       0.00000       0.00000       0.00000  
hydcha066                        2       1.26750       0.12848       0.01013       0.29490       0.05000       1.00000       0.01000       0.00500       1.05000       0.00100      12.00000      50.00000       0.04000       1.00000       0.50000       0.50000       0.00001       0.10000       0.00000       0.00000       0.00000  
hydcha067                        2       1.51403       0.14465       0.02396       0.45940       0.05000       1.00000       0.01000       0.00500       1.05000       0.00100      12.00000      50.00000       0.04000       1.00000       0.50000       0.50000       0.00001       0.10000       0.00000       0.00000       0.00000  
hydcha068                        2       1.04647       0.11308       0.03799       1.07910       0.05000       1.00000       0.01000       0.00500       1.05000       0.00100      12.00000      50.00000       0.04000       1.00000       0.50000       0.50000       0.00001       0.10000       0.00000       0.00000       0.00000  
hydcha069                        2       1.42787       0.13910       0.02645       0.94370       0.05000       1.00000       0.01000       0.00500       1.05000       0.00100      12.00000      50.00000       0.04000       1.00000       0.50000       0.50000       0.00001       0.10000       0.00000       0.00000       0.00000  
hydcha070                        2       1.31347       0.13157       0.02882       0.27730       0.05000       1.00000       0.01000       0.00500       1.05000       0.00100      12.00000      50.00000       0.04000       1.00000       0.50000       0.50000       0.00001       0.10000       0.00000       0.00000       0.00000  
hydcha071                        2       0.91866       0.10367       0.05465       0.76460       0.05000       1.00000       0.01000       0.00500       1.05000       0.00100      12.00000      50.00000       0.04000       1.00000       0.50000       0.50000       0.00001       0.10000       0.00000       0.00000       0.00000  
hydcha072                        2       1.08757       0.11602       0.01361       0.36730       0.05000       1.00000       0.01000       0.00500       1.05000       0.00100      12.00000      50.00000       0.04000       1.00000       0.50000       0.50000       0.00001       0.10000       0.00000       0.00000       0.00000  
hydcha073                        2       0.85333       0.09869       0.00729       0.40980       0.05000       1.00000       0.01000       0.00500       1.05000       0.00100      12.00000      50.00000       0.04000       1.00000       0.50000       0.50000       0.00001       0.10000       0.00000       0.00000       0.00000  
hydcha074                        2       1.15188       0.12055       0.05034       0.39730       0.05000       1.00000       0.01000       0.00500       1.05000       0.00100      12.00000      50.00000       0.04000       1.00000       0.50000       0.50000       0.00001       0.10000       0.00000       0.00000       0.00000  
hydcha075                        2       1.25902       0.12791       0.01720       0.17490       0.05000       1.00000       0.01000       0.00500       1.05000       0.00100      12.00000      50.00000       0.04000       1.00000       0.50000       0.50000       0.00001       0.10000       0.00000       0.00000       0.00000  
hydcha076                        2       1.07504       0.11512       0.04196       0.57210       0.05000       1.00000       0.01000       0.00500       1.05000       0.00100      12.00000      50.00000       0.04000       1.00000       0.50000       0.50000       0.00001       0.10000       0.00000       0.00000       0.00000  
hydcha077                        2       1.12157       0.11842       0.03880       0.18000       0.05000       1.00000       0.01000       0.00500       1.05000       0.00100      12.00000      50.00000       0.04000       1.00000       0.50000       0.50000       0.00001       0.10000       0.00000       0.00000       0.00000  
hydcha078                        2       1.02550       0.11156       0.03837       0.54730       0.05000       1.00000       0.01000       0.00500       1.05000       0.00100      12.00000      50.00000       0.04000       1.00000       0.50000       0.50000       0.00001       0.10000       0.00000       0.00000       0.00000  
hydcha079                        2       1.00260       0.10989       0.02078       0.24000       0.05000       1.00000       0.01000       0.00500       1.05000       0.00100      12.00000      50.00000       0.04000       1.00000       0.50000       0.50000       0.00001       0.10000       0.00000       0.00000       0.00000  
hydcha080                        2       0.93688       0.10504       0.09294       0.80700       0.05000       1.00000       0.01000       0.00500       1.05000       0.00100      12.00000      50.00000       0.04000       1.00000       0.50000       0.50000       0.00001       0.10000       0.00000       0.00000       0.00000  
hydcha081                        2       0.65711       0.08292       0.05259       0.62700       0.05000       1.00000       0.01000       0.00500       1.05000       0.00100      12.00000      50.00000       0.04000       1.00000       0.50000       0.50000       0.00001       0.10000       0.00000       0.00000       0.00000  
hydcha082                        2       1.02469       0.11150       0.03401       0.20490       0.05000       1.00000       0.01000       0.00500       1.05000       0.00100      12.00000      50.00000       0.04000       1.00000       0.50000       0.50000       0.00001       0.10000       0.00000       0.00000       0.00000  
hydcha083                        2       0.65273       0.08255       0.02858       0.52460       0.05000       1.00000       0.01000       0.00500       1.05000       0.00100      12.00000      50.00000       0.04000       1.00000       0.50000       0.50000       0.00001       0.10000       0.00000       0.00000       0.00000  
hydcha084                        2       0.75797       0.09120       0.01715       0.17490       0.05000       1.00000       0.01000       0.00500       1.05000       0.00100      12.00000      50.00000       0.04000       1.00000       0.50000       0.50000       0.00001       0.10000       0.00000       0.00000       0.00000  
hydcha085                        2       0.79414       0.09408       0.04203       0.49970       0.05000       1.00000       0.01000       0.00500       1.05000       0.00100      12.00000      50.00000       0.04000       1.00000       0.50000       0.50000       0.00001       0.10000       0.00000       0.00000       0.00000  
hydcha086                        2       0.65383       0.08264       0.00593       0.33220       0.05000       1.00000       0.01000       0.00500       1.05000       0.00100      12.00000      50.00000       0.04000       1.00000       0.50000       0.50000       0.00001       0.10000       0.00000       0.00000       0.00000  
hydcha089                        2       0.71959       0.08809       0.09147       0.40450       0.05000       1.00000       0.01000       0.00500       1.05000       0.00100      12.00000      50.00000       0.04000       1.00000       0.50000       0.50000       0.00001       0.10000       0.00000       0.00000       0.00000  
hydcha091                        2       0.80849       0.09521       0.09218       0.37970       0.05000       1.00000       0.01000       0.00500       1.05000       0.00100      12.00000      50.00000       0.04000       1.00000       0.50000       0.50000       0.00001       0.10000       0.00000       0.00000       0.00000  
hydcha092                        2       0.62038       0.07980       0.04203       0.40450       0.05000       1.00000       0.01000       0.00500       1.05000       0.00100      12.00000      50.00000       0.04000       1.00000       0.50000       0.50000       0.00001       0.10000       0.00000       0.00000       0.00000  
hydcha093                        2       0.78253       0.09316       0.02543       0.15730       0.05000       1.00000       0.01000       0.00500       1.05000       0.00100      12.00000      50.00000       0.04000       1.00000       0.50000       0.50000       0.00001       0.10000       0.00000       0.00000       0.00000  
hydcha094                        2       0.77571       0.09262       0.05858       0.40970       0.05000       1.00000       0.01000       0.00500       1.05000       0.00100      12.00000      50.00000       0.04000       1.00000       0.50000       0.50000       0.00001       0.10000       0.00000       0.00000       0.00000  
hydcha095                        2       0.80468       0.09491       0.06803       0.63210       0.05000       1.00000       0.01000       0.00500       1.05000       0.00100      12.00000      50.00000       0.04000       1.00000       0.50000       0.50000       0.00001       0.10000       0.00000       0.00000       0.00000  
hydcha096                        1       0.33935       0.05337       0.01092       0.09000       0.05000       1.00000       0.01000       0.00500       1.05000       0.00100      12.00000      50.00000       0.04000       1.00000       0.50000       0.50000       0.00001       0.10000       0.00000       0.00000       0.00000  
hydcha097                        1       0.44567       0.06401       0.03462       0.37460       0.05000       1.00000       0.01000       0.00500       1.05000       0.00100      12.00000      50.00000       0.04000       1.00000       0.50000       0.50000       0.00001       0.10000       0.00000       0.00000       0.00000  
hydcha099                        1       0.36742       0.05628       0.06795       0.30730       0.05000       1.00000       0.01000       0.00500       1.05000       0.00100      12.00000      50.00000       0.04000       1.00000       0.50000       0.50000       0.00001       0.10000       0.00000       0.00000       0.00000  
hydcha100                        1       0.38951       0.05851       0.00011       0.11490       0.05000       1.00000       0.01000       0.00500       1.05000       0.00100      12.00000      50.00000       0.04000       1.00000       0.50000       0.50000       0.00001       0.10000       0.00000       0.00000       0.00000  
hydcha102                        1       0.37382       0.05693       0.00017       0.11490       0.05000       1.00000       0.01000       0.00500       1.05000       0.00100      12.00000      50.00000       0.04000       1.00000       0.50000       0.50000       0.00001       0.10000       0.00000       0.00000       0.00000  
hydcha103                        1       0.34104       0.05355       0.00001       0.16240       0.05000       1.00000       0.01000       0.00500       1.05000       0.00100      12.00000      50.00000       0.04000       1.00000       0.50000       0.50000       0.00001       0.10000       0.00000       0.00000       0.00000  
hydcha104                        1       0.42847       0.06235       0.10605       0.25460       0.05000       1.00000       0.01000       0.00500       1.05000       0.00100      12.00000      50.00000       0.04000       1.00000       0.50000       0.50000       0.00001       0.10000       0.00000       0.00000       0.00000  