ls_unit.ele: written by SWAT+ editor v2.3.1 on 2023-08-15 15:10 for SWAT+ rev.60.5.7
      id  name                   obj_typ  obj_typ_no      bsn_frac      sub_frac      reg_frac  
       1  hru0001                    hru           1     3.6487E-4       0.25490       0.00000  
       2  hru0002                    hru           2     4.3972E-4       0.30719       0.00000  
       3  hru0003                    hru           3     4.0230E-4       0.28105       0.00000  
       4  hru0004                    hru           4     2.2454E-4       0.15686       0.00000  
       5  hru0005                    hru           5     6.6406E-5       0.33333       0.00000  
       6  hru0006                    hru           6     8.3008E-5       0.41667       0.00000  
       7  hru0007                    hru           7     4.9805E-5       0.25000       0.00000  
       8  hru0008                    hru           8     3.4436E-4       0.42045       0.00000  
       9  hru0009                    hru           9     1.3030E-4       0.15909       0.00000  
      10  hru0010                    hru          10     1.3960E-4       0.17045       0.00000  
      11  hru0011                    hru          11     1.1168E-4       0.13636       0.00000  
      12  hru0012                    hru          12     9.3070E-5       0.11364       0.00000  
      13  hru0013                    hru          13     2.2135E-5       0.33333       0.00000  
      14  hru0014                    hru          14     2.2135E-5       0.33333       0.00000  
      15  hru0015                    hru          15     7.3785E-6       0.11111       0.00000  
      16  hru0016                    hru          16     1.4757E-5       0.22222       0.00000  
      17  hru0017                    hru          17     3.0129E-4       0.19444       0.00000  
      18  hru0018                    hru          18     1.5495E-4       0.10000       0.00000  
      19  hru0019                    hru          19     3.0129E-4       0.19444       0.00000  
      20  hru0020                    hru          20     2.7546E-4       0.17778       0.00000  
      21  hru0021                    hru          21     2.8407E-4       0.18333       0.00000  
      22  hru0022                    hru          22     2.3242E-4       0.15000       0.00000  
      23  hru0023                    hru          23     8.3951E-5       0.17778       0.00000  
      24  hru0024                    hru          24     2.8333E-4       0.60000       0.00000  
      25  hru0025                    hru          25     1.0494E-4       0.22222       0.00000  
      26  hru0026                    hru          26     2.8623E-4       0.51724       0.00000  
      27  hru0027                    hru          27     7.6329E-5       0.13793       0.00000  
      28  hru0028                    hru          28     1.9082E-4       0.34483       0.00000  
      29  hru0029                    hru          29     9.5486E-5       0.32353       0.00000  
      30  hru0030                    hru          30     4.3403E-5       0.14706       0.00000  
      31  hru0031                    hru          31     3.4722E-5       0.11765       0.00000  
      32  hru0032                    hru          32     4.3403E-5       0.14706       0.00000  
      33  hru0033                    hru          33     7.8125E-5       0.26471       0.00000  
      34  hru0034                    hru          34     2.5700E-4       0.14045       0.00000  
      35  hru0035                    hru          35     5.6541E-4       0.30899       0.00000  
      36  hru0036                    hru          36     3.2896E-4       0.17978       0.00000  
      37  hru0037                    hru          37     6.7849E-4       0.37079       0.00000  
      38  hru0038                    hru          38     5.2279E-4       0.55789       0.00000  
      39  hru0039                    hru          39     1.5782E-4       0.16842       0.00000  
      40  hru0040                    hru          40     1.5782E-4       0.16842       0.00000  
      41  hru0041                    hru          41     9.8639E-5       0.10526       0.00000  
      42  hru0042                    hru          42     9.6017E-4       0.68852       0.00000  
      43  hru0043                    hru          43     4.3436E-4       0.31148       0.00000  
      44  hru0044                    hru          44     1.2986E-4       0.80000       0.00000  
      45  hru0045                    hru          45     3.2465E-5       0.20000       0.00000  
      46  hru0046                    hru          46     6.4960E-4       0.41333       0.00000  
      47  hru0047                    hru          47     2.2003E-4       0.14000       0.00000  
      48  hru0048                    hru          48     1.8859E-4       0.12000       0.00000  
      49  hru0049                    hru          49     5.1340E-4       0.32667       0.00000  
      50  hru0050                    hru          50     1.1191E-4       0.18056       0.00000  
      51  hru0051                    hru          51     1.1191E-4       0.18056       0.00000  
      52  hru0052                    hru          52     6.8866E-5       0.11111       0.00000  
      53  hru0053                    hru          53     1.2052E-4       0.19444       0.00000  
      54  hru0054                    hru          54     1.1191E-4       0.18056       0.00000  
      55  hru0055                    hru          55     9.4691E-5       0.15278       0.00000  
      56  hru0056                    hru          56     3.3203E-5       0.25000       0.00000  
      57  hru0057                    hru          57     5.8106E-5       0.43750       0.00000  
      58  hru0058                    hru          58     4.1504E-5       0.31250       0.00000  
      59  hru0059                    hru          59     1.8367E-4       0.60714       0.00000  
      60  hru0060                    hru          60     6.4825E-5       0.21429       0.00000  
      61  hru0061                    hru          61     5.4021E-5       0.17857       0.00000  
      62  hru0062                    hru          62     1.8135E-4       0.24096       0.00000  
      63  hru0063                    hru          63     3.8990E-4       0.51807       0.00000  
      64  hru0064                    hru          64     9.9743E-5       0.13253       0.00000  
      65  hru0065                    hru          65     8.1608E-5       0.10843       0.00000  
      66  hru0066                    hru          66     3.9730E-5       0.19231       0.00000  
      67  hru0067                    hru          67     5.5622E-5       0.26923       0.00000  
      68  hru0068                    hru          68     7.9461E-5       0.38462       0.00000  
      69  hru0069                    hru          69     3.1784E-5       0.15385       0.00000  
      70  hru0070                    hru          70     2.7159E-4       0.42308       0.00000  
      71  hru0071                    hru          71     1.1522E-4       0.17949       0.00000  
      72  hru0072                    hru          72     9.0528E-5       0.14103       0.00000  
      73  hru0073                    hru          73     6.5839E-5       0.10256       0.00000  
      74  hru0074                    hru          74     9.8758E-5       0.15385       0.00000  
      75  hru0075                    hru          75     1.5679E-5       0.12500       0.00000  
      76  hru0076                    hru          76     5.4878E-5       0.43750       0.00000  
      77  hru0077                    hru          77     3.9198E-5       0.31250       0.00000  
      78  hru0078                    hru          78     1.5679E-5       0.12500       0.00000  
      79  hru0079                    hru          79     4.1445E-4       0.28369       0.00000  
      80  hru0080                    hru          80     6.6312E-4       0.45390       0.00000  
      81  hru0081                    hru          81     2.2795E-4       0.15603       0.00000  
      82  hru0082                    hru          82     1.5542E-4       0.10638       0.00000  
      83  hru0083                    hru          83     2.7685E-4       0.50704       0.00000  
      84  hru0084                    hru          84     2.0764E-4       0.38028       0.00000  
      85  hru0085                    hru          85     6.1522E-5       0.11268       0.00000  
      86  hru0086                    hru          86     8.9464E-5       0.12500       0.00000  
      87  hru0087                    hru          87     1.3420E-4       0.18750       0.00000  
      88  hru0088                    hru          88     1.5209E-4       0.21250       0.00000  
      89  hru0089                    hru          89     1.6998E-4       0.23750       0.00000  
      90  hru0090                    hru          90     1.6998E-4       0.23750       0.00000  
      91  hru0091                    hru          91     7.6389E-5       0.23529       0.00000  
      92  hru0092                    hru          92     3.8195E-5       0.11765       0.00000  
      93  hru0093                    hru          93     9.5486E-5       0.29412       0.00000  
      94  hru0094                    hru          94     1.1458E-4       0.35294       0.00000  
      95  hru0095                    hru          95     4.9438E-4       0.17915       0.00000  
      96  hru0096                    hru          96     6.3820E-4       0.23127       0.00000  
      97  hru0097                    hru          97     4.7641E-4       0.17264       0.00000  
      98  hru0098                    hru          98     5.9326E-4       0.21498       0.00000  
      99  hru0099                    hru          99     5.5730E-4       0.20195       0.00000  
     100  hru0100                    hru         100     8.0746E-5       0.18868       0.00000  
     101  hru0101                    hru         101     1.5342E-4       0.35849       0.00000  
     102  hru0102                    hru         102     1.4534E-4       0.33962       0.00000  
     103  hru0103                    hru         103     4.8447E-5       0.11321       0.00000  
     104  hru0104                    hru         104     1.6404E-4       0.13393       0.00000  
     105  hru0105                    hru         105     4.2650E-4       0.34821       0.00000  
     106  hru0106                    hru         106     1.4217E-4       0.11607       0.00000  
     107  hru0107                    hru         107     3.4995E-4       0.28571       0.00000  
     108  hru0108                    hru         108     1.4217E-4       0.11607       0.00000  
     109  hru0109                    hru         109     2.2899E-5       0.10345       0.00000  
     110  hru0110                    hru         110     4.5798E-5       0.20690       0.00000  
     111  hru0111                    hru         111     1.5266E-4       0.68966       0.00000  
     112  hru0112                    hru         112     3.3941E-5       0.10000       0.00000  
     113  hru0113                    hru         113     4.2426E-5       0.12500       0.00000  
     114  hru0114                    hru         114     4.2426E-5       0.12500       0.00000  
     115  hru0115                    hru         115     9.3338E-5       0.27500       0.00000  
     116  hru0116                    hru         116     5.9397E-5       0.17500       0.00000  
     117  hru0117                    hru         117     6.7882E-5       0.20000       0.00000  
     118  hru0118                    hru         118     6.7226E-5       0.22222       0.00000  
     119  hru0119                    hru         119     7.8431E-5       0.25926       0.00000  
     120  hru0120                    hru         120     3.3613E-5       0.11111       0.00000  
     121  hru0121                    hru         121     8.9635E-5       0.29630       0.00000  
     122  hru0122                    hru         122     3.3613E-5       0.11111       0.00000  
     123  hru0123                    hru         123     1.9184E-5       0.20000       0.00000  
     124  hru0124                    hru         124     2.8776E-5       0.30000       0.00000  
     125  hru0125                    hru         125     2.8776E-5       0.30000       0.00000  
     126  hru0126                    hru         126     9.5920E-6       0.10000       0.00000  
     127  hru0127                    hru         127     9.5920E-6       0.10000       0.00000  
     128  hru0128                    hru         128     1.7660E-4       0.24675       0.00000  
     129  hru0129                    hru         129     1.1154E-4       0.15584       0.00000  
     130  hru0130                    hru         130     1.5801E-4       0.22078       0.00000  
     131  hru0131                    hru         131     2.6955E-4       0.37662       0.00000  
     132  hru0132                    hru         132     3.4720E-4       0.27200       0.00000  
     133  hru0133                    hru         133     2.5530E-4       0.20000       0.00000  
     134  hru0134                    hru         134     3.1657E-4       0.24800       0.00000  
     135  hru0135                    hru         135     1.4297E-4       0.11200       0.00000  
     136  hru0136                    hru         136     2.1445E-4       0.16800       0.00000  
     137  hru0137                    hru         137     3.7712E-5       0.11111       0.00000  
     138  hru0138                    hru         138     1.0371E-4       0.30556       0.00000  
     139  hru0139                    hru         139     6.5997E-5       0.19444       0.00000  
     140  hru0140                    hru         140     5.6568E-5       0.16667       0.00000  
     141  hru0141                    hru         141     3.7712E-5       0.11111       0.00000  
     142  hru0142                    hru         142     3.7712E-5       0.11111       0.00000  
     143  hru0143                    hru         143     5.0022E-4       0.57944       0.00000  
     144  hru0144                    hru         144     2.0170E-4       0.23364       0.00000  
     145  hru0145                    hru         145     1.6136E-4       0.18692       0.00000  
     146  hru0146                    hru         146     8.1552E-5       0.52632       0.00000  
     147  hru0147                    hru         147     1.6310E-5       0.10526       0.00000  
     148  hru0148                    hru         148     5.7086E-5       0.36842       0.00000  
     149  hru0149                    hru         149     4.1436E-4       0.47191       0.00000  
     150  hru0150                    hru         150     1.0852E-4       0.12360       0.00000  
     151  hru0151                    hru         151     1.5785E-4       0.17978       0.00000  
     152  hru0152                    hru         152     9.8656E-5       0.11236       0.00000  
     153  hru0153                    hru         153     9.8656E-5       0.11236       0.00000  
     154  hru0154                    hru         154     1.2815E-4       0.39474       0.00000  
     155  hru0155                    hru         155     1.1107E-4       0.34211       0.00000  
     156  hru0156                    hru         156     4.2718E-5       0.13158       0.00000  
     157  hru0157                    hru         157     4.2718E-5       0.13158       0.00000  
     158  hru0158                    hru         158     3.0268E-4       0.57778       0.00000  
     159  hru0159                    hru         159     8.1491E-5       0.15556       0.00000  
     160  hru0160                    hru         160     6.9850E-5       0.13333       0.00000  
     161  hru0161                    hru         161     6.9850E-5       0.13333       0.00000  
     162  hru0162                    hru         162     1.6346E-4       0.46154       0.00000  
     163  hru0163                    hru         163     1.1806E-4       0.33333       0.00000  
     164  hru0164                    hru         164     3.6325E-5       0.10256       0.00000  
     165  hru0165                    hru         165     3.6325E-5       0.10256       0.00000  
     166  hru0166                    hru         166     1.2175E-4       0.14474       0.00000  
     167  hru0167                    hru         167     3.8737E-4       0.46053       0.00000  
     168  hru0168                    hru         168     1.5495E-4       0.18421       0.00000  
     169  hru0169                    hru         169     8.8542E-5       0.10526       0.00000  
     170  hru0170                    hru         170     8.8542E-5       0.10526       0.00000  
     171  hru0171                    hru         171     9.5721E-5       0.27027       0.00000  
     172  hru0172                    hru         172     1.6273E-4       0.45946       0.00000  
     173  hru0173                    hru         173     9.5721E-5       0.27027       0.00000  
     174  hru0174                    hru         174     2.3267E-4       0.36667       0.00000  
     175  hru0175                    hru         175     8.4607E-5       0.13333       0.00000  
     176  hru0176                    hru         176     1.5864E-4       0.25000       0.00000  
     177  hru0177                    hru         177     7.4031E-5       0.11667       0.00000  
     178  hru0178                    hru         178     8.4607E-5       0.13333       0.00000  
     179  hru0179                    hru         179     1.0331E-3       0.54271       0.00000  
     180  hru0180                    hru         180     5.4527E-4       0.28643       0.00000  
     181  hru0181                    hru         181     3.2525E-4       0.17085       0.00000  
     182  hru0182                    hru         182     4.1603E-4       0.20961       0.00000  
     183  hru0183                    hru         183     3.2936E-4       0.16594       0.00000  
     184  hru0184                    hru         184     7.8006E-4       0.39301       0.00000  
     185  hru0185                    hru         185     4.5937E-4       0.23144       0.00000  
     186  hru0186                    hru         186     7.5346E-5       0.17308       0.00000  
     187  hru0187                    hru         187     1.0883E-4       0.25000       0.00000  
     188  hru0188                    hru         188     7.5346E-5       0.17308       0.00000  
     189  hru0189                    hru         189     1.0883E-4       0.25000       0.00000  
     190  hru0190                    hru         190     6.6974E-5       0.15385       0.00000  
     191  hru0191                    hru         191     9.1405E-5       0.14925       0.00000  
     192  hru0192                    hru         192     7.3124E-5       0.11940       0.00000  
     193  hru0193                    hru         193     9.1405E-5       0.14925       0.00000  
     194  hru0194                    hru         194     1.0055E-4       0.16418       0.00000  
     195  hru0195                    hru         195     8.2265E-5       0.13433       0.00000  
     196  hru0196                    hru         196     1.0969E-4       0.17910       0.00000  
     197  hru0197                    hru         197     6.3984E-5       0.10448       0.00000  
     198  hru0198                    hru         198     1.5640E-4       0.17094       0.00000  
     199  hru0199                    hru         199     1.0166E-4       0.11111       0.00000  
     200  hru0200                    hru         200     3.1280E-4       0.34188       0.00000  
     201  hru0201                    hru         201     2.1896E-4       0.23932       0.00000  
     202  hru0202                    hru         202     1.2512E-4       0.13675       0.00000  
     203  hru0203                    hru         203     7.5566E-5       0.10345       0.00000  
     204  hru0204                    hru         204     3.6104E-4       0.49425       0.00000  
     205  hru0205                    hru         205     1.0915E-4       0.14943       0.00000  
     206  hru0206                    hru         206     1.0915E-4       0.14943       0.00000  
     207  hru0207                    hru         207     7.5566E-5       0.10345       0.00000  
     208  hru0208                    hru         208     6.8281E-4       0.44706       0.00000  
     209  hru0209                    hru         209     8.4453E-4       0.55294       0.00000  
     210  hru0210                    hru         210     3.1149E-4       0.36082       0.00000  
     211  hru0211                    hru         211     1.0680E-4       0.12371       0.00000  
     212  hru0212                    hru         212     1.3350E-4       0.15464       0.00000  
     213  hru0213                    hru         213     8.8998E-5       0.10309       0.00000  
     214  hru0214                    hru         214     8.8998E-5       0.10309       0.00000  
     215  hru0215                    hru         215     1.3350E-4       0.15464       0.00000  
     216  hru0216                    hru         216     4.2843E-5       0.16129       0.00000  
     217  hru0217                    hru         217     5.9980E-5       0.22581       0.00000  
     218  hru0218                    hru         218     1.1139E-4       0.41935       0.00000  
     219  hru0219                    hru         219     5.1411E-5       0.19355       0.00000  
     220  hru0220                    hru         220     5.3740E-4       0.22619       0.00000  
     221  hru0221                    hru         221     1.1314E-3       0.47619       0.00000  
     222  hru0222                    hru         222     4.0541E-4       0.17063       0.00000  
     223  hru0223                    hru         223     3.0170E-4       0.12698       0.00000  
     224  hru0224                    hru         224     5.5322E-4       0.48062       0.00000  
     225  hru0225                    hru         225     1.9630E-4       0.17054       0.00000  
     226  hru0226                    hru         226     4.0153E-4       0.34884       0.00000  
     227  hru0227                    hru         227     4.4455E-4       0.25000       0.00000  
     228  hru0228                    hru         228     8.0237E-4       0.45122       0.00000  
     229  hru0229                    hru         229     3.2528E-4       0.18293       0.00000  
     230  hru0230                    hru         230     2.0601E-4       0.11585       0.00000  
     231  hru0231                    hru         231     2.9614E-4       0.40541       0.00000  
     232  hru0232                    hru         232     9.8712E-5       0.13514       0.00000  
     233  hru0233                    hru         233     1.2833E-4       0.17568       0.00000  
     234  hru0234                    hru         234     8.8841E-5       0.12162       0.00000  
     235  hru0235                    hru         235     1.1845E-4       0.16216       0.00000  
     236  hru0236                    hru         236     3.2281E-4       0.67308       0.00000  
     237  hru0237                    hru         237     1.0145E-4       0.21154       0.00000  
     238  hru0238                    hru         238     5.5339E-5       0.11538       0.00000  
     239  hru0239                    hru         239     2.7218E-4       0.15306       0.00000  
     240  hru0240                    hru         240     2.4496E-4       0.13776       0.00000  
     241  hru0241                    hru         241     2.2681E-4       0.12755       0.00000  
     242  hru0242                    hru         242     2.3589E-4       0.13265       0.00000  
     243  hru0243                    hru         243     5.8971E-4       0.33163       0.00000  
     244  hru0244                    hru         244     2.0867E-4       0.11735       0.00000  
     245  hru0245                    hru         245     4.5688E-4       0.37302       0.00000  
     246  hru0246                    hru         246     1.6525E-4       0.13492       0.00000  
     247  hru0247                    hru         247     3.3051E-4       0.26984       0.00000  
     248  hru0248                    hru         248     2.7218E-4       0.22222       0.00000  
     249  hru0249                    hru         249     4.3217E-4       0.13016       0.00000  
     250  hru0250                    hru         250     7.8001E-4       0.23492       0.00000  
     251  hru0251                    hru         251     8.6434E-4       0.26032       0.00000  
     252  hru0252                    hru         252     4.3217E-4       0.13016       0.00000  
     253  hru0253                    hru         253     8.1163E-4       0.24444       0.00000  
     254  hru0254                    hru         254     2.3717E-4       0.16071       0.00000  
     255  hru0255                    hru         255     3.8649E-4       0.26190       0.00000  
     256  hru0256                    hru         256     2.5473E-4       0.17262       0.00000  
     257  hru0257                    hru         257     2.5473E-4       0.17262       0.00000  
     258  hru0258                    hru         258     1.5811E-4       0.10714       0.00000  
     259  hru0259                    hru         259     1.8446E-4       0.12500       0.00000  
     260  hru0260                    hru         260     9.2231E-5       0.35714       0.00000  
     261  hru0261                    hru         261     1.6602E-4       0.64286       0.00000  
     262  hru0262                    hru         262     2.0281E-4       0.24324       0.00000  
     263  hru0263                    hru         263     1.0140E-4       0.12162       0.00000  
     264  hru0264                    hru         264     2.3661E-4       0.28378       0.00000  
     265  hru0265                    hru         265     1.0140E-4       0.12162       0.00000  
     266  hru0266                    hru         266     1.0140E-4       0.12162       0.00000  
     267  hru0267                    hru         267     9.0137E-5       0.10811       0.00000  
     268  hru0268                    hru         268     3.9951E-4       0.37864       0.00000  
     269  hru0269                    hru         269     2.6634E-4       0.25243       0.00000  
     270  hru0270                    hru         270     2.2537E-4       0.21359       0.00000  
     271  hru0271                    hru         271     1.6390E-4       0.15534       0.00000  
     272  hru0272                    hru         272     5.0215E-4       0.38889       0.00000  
     273  hru0273                    hru         273     6.0078E-4       0.46528       0.00000  
     274  hru0274                    hru         274     1.8831E-4       0.14583       0.00000  
     275  hru0275                    hru         275     6.6406E-5       0.20000       0.00000  
     276  hru0276                    hru         276     1.5772E-4       0.47500       0.00000  
     277  hru0277                    hru         277     6.6406E-5       0.20000       0.00000  
     278  hru0278                    hru         278     4.1504E-5       0.12500       0.00000  
     279  hru0279                    hru         279     7.8057E-5       0.15789       0.00000  
     280  hru0280                    hru         280     6.0711E-5       0.12281       0.00000  
     281  hru0281                    hru         281     1.0408E-4       0.21053       0.00000  
     282  hru0282                    hru         282     7.8057E-5       0.15789       0.00000  
     283  hru0283                    hru         283     9.5403E-5       0.19298       0.00000  
     284  hru0284                    hru         284     7.8057E-5       0.15789       0.00000  
     285  hru0285                    hru         285     4.7927E-4       0.39850       0.00000  
     286  hru0286                    hru         286     4.4310E-4       0.36842       0.00000  
     287  hru0287                    hru         287     2.8033E-4       0.23308       0.00000  
     288  hru0288                    hru         288     2.6633E-4       0.25600       0.00000  
     289  hru0289                    hru         289     2.5801E-4       0.24800       0.00000  
     290  hru0290                    hru         290     2.9130E-4       0.28000       0.00000  
     291  hru0291                    hru         291     1.1652E-4       0.11200       0.00000  
     292  hru0292                    hru         292     1.0820E-4       0.10400       0.00000  
     293  hru0293                    hru         293     6.1320E-4       0.44681       0.00000  
     294  hru0294                    hru         294     4.8667E-4       0.35461       0.00000  
     295  hru0295                    hru         295     2.7253E-4       0.19858       0.00000  
     296  hru0296                    hru         296     2.1211E-4       0.26374       0.00000  
     297  hru0297                    hru         297     9.7218E-5       0.12088       0.00000  
     298  hru0298                    hru         298     3.5352E-4       0.43956       0.00000  
     299  hru0299                    hru         299     1.4141E-4       0.17582       0.00000  
     300  hru0300                    hru         300     1.9339E-4       0.15789       0.00000  
     301  hru0301                    hru         301     1.9339E-4       0.15789       0.00000  
     302  hru0302                    hru         302     5.2378E-4       0.42763       0.00000  
     303  hru0303                    hru         303     3.1427E-4       0.25658       0.00000  
     304  hru0304                    hru         304     3.2135E-4       0.38542       0.00000  