ls_unit.def: written by SWAT+ editor v2.3.1 on 2023-08-15 15:10 for SWAT+ rev.60.5.7
1186
      id              name          area  elem_tot  elements  
       1           rtu0011       7.92000         2      1033     -1035  
       2           rtu0012       0.90000         2      1036     -1040  
       3           rtu0021       5.49000         2      1068     -1071  
       4           rtu0022       2.34000         2      1072     -1074  
       5           rtu0031      10.08000         2      1062     -1067  
       6           rtu0032      27.00000         2      1057     -1061  
       7           rtu0041       2.34000         2      1012     -1013  
       8           rtu0042       0.09000         1      1014  
       9           rtu0051       9.99000         2       997     -1002  
      10           rtu0052       9.81000         2       993      -996  
      11           rtu0061       3.24000         2       800      -803  
      12           rtu0062       6.48000         2       804      -807  
      13           rtu0071      14.13000         2       778      -782  
      14           rtu0072      15.30000         2       774      -777  
      15           rtu0081      21.78000         2       808      -812  
      16           rtu0082      16.38000         2       813      -816  
      17           rtu0091      10.53000         2       959      -962  
      18           rtu0092       8.37000         2       955      -958  
      19           rtu0111       8.19000         2       741      -746  
      20           rtu0112      15.75000         2       735      -740  
      21           rtu0121       7.65000         2       966      -970  
      22           rtu0122       9.54000         2       963      -965  
      23           rtu0131      10.17000         2       747      -752  
      24           rtu0132      35.82000         2       753      -756  
      25           rtu0151       7.20000         2       757      -759  
      26           rtu0152       2.43000         2       760      -763  
      27           rtu0161       5.58000         2       769      -773  
      28           rtu0162      19.71000         2       764      -768  
      29           rtu0171      16.47000         2      1020     -1023  
      30           rtu0172      25.29000         2      1015     -1019  
      31           rtu0181      12.24000         2       790      -795  
      32           rtu0182      18.27000         2       796      -799  
      33           rtu0191       7.02000         2      1290     -1294  
      34           rtu0192       9.09000         2      1286     -1289  
      35           rtu0201       4.59000         2      1326     -1328  
      36           rtu0202       5.85000         2      1329     -1330  
      37           rtu0211      14.22000         2       979      -982  
      38           rtu0212       9.63000         2       983      -984  
      39           rtu0221      10.53000         2      1414     -1417  
      40           rtu0222      10.98000         2      1418     -1419  
      41           rtu0231      25.56000         2      1334     -1336  
      42           rtu0232      48.60000         2      1331     -1333  
      43           rtu0241       4.32000         2      1298     -1301  
      44           rtu0242       9.45000         2      1295     -1297  
      45           rtu0251       6.57000         2      1312     -1315  
      46           rtu0252      20.61000         2      1316     -1319  
      47           rtu0261       5.40000         2       985      -987  
      48           rtu0262       9.81000         1       988  
      49           rtu0271       6.93000         2       840      -843  
      50           rtu0272      31.32000         2       844      -848  
      51           rtu0281       5.13000         2       662      -664  
      52           rtu0282      16.65000         2       658      -661  
      53           rtu0291       2.43000         2      1091     -1092  
      54           rtu0292      13.95000         2      1093     -1097  
      55           rtu0311       3.78000         2       647      -650  
      56           rtu0312       8.10000         2       644      -646  
      57           rtu0321       8.10000         2       639      -643  
      58           rtu0322      19.26000         2       637      -638  
      59           rtu0331       3.78000         2       625      -627  
      60           rtu0332       6.57000         2       628      -630  
      61           rtu0341       8.37000         2       615      -619  
      62           rtu0342      10.80000         2       612      -614  
      63           rtu0361      20.16000         2       585      -590  
      64           rtu0362      18.54000         2       591      -595  
      65           rtu0381      10.17000         2       304      -309  
      66           rtu0382      16.11000         2       310      -311  
      67           rtu0391       9.81000         2       296      -299  
      68           rtu0392      14.94000         2       300      -303  
      69           rtu0411       2.70000         2       410      -414  
      70           rtu0412       9.90000         2       415      -418  
      71           rtu0421      12.69000         2       288      -292  
      72           rtu0422      16.74000         2       293      -295  
      73           rtu0431       6.21000         2       379      -383  
      74           rtu0432       3.78000         2       373      -378  
      75           rtu0441       7.92000         2       396      -400  
      76           rtu0442      12.87000         2       401      -403  
      77           rtu0451      11.61000         2       540      -543  
      78           rtu0452       9.63000         2       544      -547  
      79           rtu0461       6.03000         2       279      -284  
      80           rtu0462      14.67000         2       285      -287  
      81           rtu0471       5.76000         2       369      -372  
      82           rtu0472       7.20000         2       365      -368  
      83           rtu0481       4.77000         2       384      -387  
      84           rtu0482      19.26000         2       388      -389  
      85           rtu0491      10.17000         2       262      -267  
      86           rtu0492      12.87000         2       268      -271  
      87           rtu0521      14.94000         2       245      -248  
      88           rtu0522      40.50000         2       249      -253  
      89           rtu0531       5.58000         2       357      -359  
      90           rtu0532       4.59000         2       360      -364  
      91           rtu0541       1.62000         2        56       -58  
      92           rtu0542       3.69000         2        59       -61  
      93           rtu0551       3.78000         2       520      -525  
      94           rtu0552      12.60000         2       517      -519  
      95           rtu0561      10.80000         2       508      -512  
      96           rtu0562      21.51000         2       513      -516  
      97           rtu0571       5.58000         2       504      -505  
      98           rtu0572      12.33000         2       506      -507  
      99           rtu0591       3.24000         2       216      -219  
     100           rtu0592      10.53000         2       210      -215  
     101           rtu0601       3.69000         2       118      -122  
     102           rtu0602       4.14000         2       112      -117  
     103           rtu0611       2.70000         2       109      -111  
     104           rtu0612      14.94000         2       104      -108  
     105           rtu0621      17.64000         2       342      -344  
     106           rtu0622      44.28000         2       345      -349  
     107           rtu0641       8.91000         2       203      -207  
     108           rtu0642      18.63000         2       208      -209  
     109           rtu0651       7.47000         2       191      -197  
     110           rtu0652      11.16000         2       198      -202  
     111           rtu0661       3.96000         2        91       -94  
     112           rtu0662       8.73000         2        86       -90  
     113           rtu0671       6.03000         2       911      -913  
     114           rtu0672      15.03000         2       905      -910  
     115           rtu0681      14.04000         2       224      -226  
     116           rtu0682      28.98000         2       220      -223  
     117           rtu0691      11.43000         2        38       -41  
     118           rtu0692      22.32000         2        34       -37  
     119           rtu0701       4.32000         2       171      -173  
     120           rtu0702      10.26000         2       166      -170  
     121           rtu0711       7.38000         2       535      -539  
     122           rtu0712      15.93000         2       532      -534  
     123           rtu0721       4.23000         2       975      -978  
     124           rtu0722       4.86000         2       971      -974  
     125           rtu0731       4.68000         2       572      -578  
     126           rtu0732       7.74000         2       579      -584  
     127           rtu0741       4.77000         2       456      -457  
     128           rtu0742      11.16000         2       451      -455  
     129           rtu0751       2.25000         2       922      -924  
     130           rtu0752       5.31000         2       925      -928  
     131           rtu0761       7.74000         2       174      -178  
     132           rtu0762      23.22000         2       179      -181  
     133           rtu0771       1.53000         2       918      -921  
     134           rtu0772       9.54000         2       914      -917  
     135           rtu0781       8.10000         2       337      -341  
     136           rtu0782       7.92000         2       334      -336  
     137           rtu0791       3.60000         2        29       -33  
     138           rtu0792       6.75000         2        26       -28  
     139           rtu0801       6.66000         2       489      -492  
     140           rtu0802      14.22000         2       484      -488  
     141           rtu0811       5.31000         2       817      -821  
     142           rtu0812      11.25000         2       822      -825  
     143           rtu0821       2.52000         2       892      -895  
     144           rtu0822       7.20000         2       887      -891  
     145           rtu0831       5.94000         2       600      -602  
     146           rtu0832      14.94000         2       596      -599  
     147           rtu0841       2.97000         2       324      -326  
     148           rtu0842       3.96000         2       320      -323  
     149           rtu0851       5.76000         2        23       -25  
     150           rtu0852      18.90000         2        17       -22  
     151           rtu0861       2.43000         2       837      -839  
     152           rtu0862      12.78000         2       832      -836  
     153           rtu0891       3.96000         2       480      -483  
     154           rtu0892      15.39000         2       476      -479  
     155           rtu0911       4.05000         2       443      -447  
     156           rtu0912       5.31000         2       448      -450  
     157           rtu0921       5.31000         2       186      -190  
     158           rtu0922      24.21000         2       182      -185  
     159           rtu0931       2.61000         2       884      -886  
     160           rtu0932       7.29000         2       880      -883  
     161           rtu0941       4.32000         2       162      -165  
     162           rtu0942       6.39000         2       158      -161  
     163           rtu0951       6.66000         2        83       -85  
     164           rtu0952      17.82000         2        79       -82  
     165           rtu0961       0.99000         2       989      -990  
     166           rtu0962       9.81000         2       991      -992  
     167           rtu0971       4.14000         2       852      -856  
     168           rtu0972      12.87000         2       849      -851  
     169           rtu0991       8.91000         2      1053     -1056  
     170           rtu0992       3.42000         2      1047     -1052  
     171           rtu1001       1.71000         2      1007     -1011  
     172           rtu1002      11.88000         2      1003     -1006  
     173           rtu1021       7.02000         2      1024     -1028  
     174           rtu1022       5.67000         2      1029     -1032  
     175           rtu1031       1.26000         2       634      -636  
     176           rtu1032       9.63000         2       631      -633  
     177           rtu1041       3.51000         2       826      -828  
     178           rtu1042      12.42000         2       829      -831  
     179           rtu1061       1.35000         2       933      -935  
     180           rtu1062      12.15000         2       929      -932  
     181           rtu1091       6.66000         2       783      -786  
     182           rtu1092       9.00000         2       787      -789  
     183           rtu1111       0.63000         2       902      -904  
     184           rtu1112       8.64000         2       896      -901  
     185           rtu1131       1.98000         2       623      -624  
     186           rtu1132      11.88000         2       620      -622  
     187           rtu1141       9.81000         2       529      -531  
     188           rtu1142      23.67000         2       526      -528  
     189           rtu1151       2.79000         2       952      -954  
     190           rtu1152      11.88000         2       949      -951  
     191           rtu1201       1.08000         2       603      -606  
     192           rtu1202      10.17000         2       607      -611  
     193           rtu1211       9.54000         2       943      -948  
     194           rtu1212      41.94000         2       936      -942  
     195           rtu1221       0.90000         2       877      -879  
     196           rtu1222       9.90000         2       873      -876  
     197           rtu1231       4.05000         2       275      -278  
     198           rtu1232      15.75000         2       272      -274  
     199           rtu1241       4.59000         2       870      -872  
     200           rtu1242      10.35000         2       866      -869  
     201           rtu1251       4.77000         2       861      -865  
     202           rtu1252      18.00000         2       857      -860  
     203           rtu1261      10.44000         2       729      -734  
     204           rtu1262      33.12000         2       723      -728  
     205           rtu1281      12.15000         2       499      -503  
     206           rtu1282      17.28000         2       493      -498  
     207           rtu1291       3.60000         2       569      -571  
     208           rtu1292      14.85000         2       565      -568  
     209           rtu1331       3.15000         2       260      -261  
     210           rtu1332      18.00000         2       254      -259  
     211           rtu1341       2.43000         2       718      -722  
     212           rtu1342      16.29000         2       712      -717  
     213           rtu1351      11.16000         2       552      -556  
     214           rtu1352      34.11000         2       548      -551  
     215           rtu1371       5.85000         2       236      -238  
     216           rtu1372      21.69000         2       239      -244  
     217           rtu1381      13.05000         2       561      -564  
     218           rtu1382      24.75000         2       557      -560  
     219           rtu1401       8.91000         2       231      -235  
     220           rtu1402      21.69000         2       227      -230  
     221           rtu1411       2.70000         2       472      -475  
     222           rtu1412      15.75000         2       470      -471  
     223           rtu1461      11.70000         2       465      -469  
     224           rtu1462      44.10000         2       458      -464  
     225           rtu1491       1.98000         2       350      -353  
     226           rtu1492       9.00000         2       354      -356  
     227           rtu1501       1.98000         2       404      -405  
     228           rtu1502       9.90000         2       406      -409  
     229           rtu1531       2.88000         2       441      -442  
     230           rtu1532      12.87000         2       438      -440  
     231           rtu1541       6.30000         2       331      -333  
     232           rtu1542      17.28000         2       327      -330  
     233           rtu1561       0.81000         2       317      -319  
     234           rtu1562       9.90000         2       312      -316  
     235           rtu1571       4.41000         2       425      -429  
     236           rtu1572      16.56000         2       419      -424  
     237           rtu1591       1.26000         2       393      -395  
     238           rtu1592      10.71000         2       390      -392  
     239           rtu1611       5.31000         2       434      -437  
     240           rtu1612      15.48000         2       430      -433  
     241           rtu1661       3.96000         2       154      -157  
     242           rtu1662      10.71000         2       149      -153  
     243           rtu1681       1.17000         2       123      -127  
     244           rtu1682       8.73000         2       128      -131  
     245           rtu1691       1.89000         2       146      -148  
     246           rtu1692      10.53000         2       143      -145  
     247           rtu1701       4.14000         2       137      -142  
     248           rtu1702      15.57000         2       132      -136  
     249           rtu1711       7.56000         2        50       -55  
     250           rtu1712      19.17000         2        46       -49  
     251           rtu1721       5.22000         2       100      -103  
     252           rtu1722      33.66000         2        95       -99  
     253           rtu1741       1.98000         2        44       -45  
     254           rtu1742      17.01000         2        42       -43  
     255           rtu1751       1.53000         2        75       -78  
     256           rtu1752       7.83000         2        70       -74  
     257           rtu1761       0.81000         2        13       -16  
     258           rtu1762       9.99000         2         8       -12  
     259           rtu1771       2.52000         2        66       -69  
     260           rtu1772       9.18000         2        62       -65  
     261           rtu1781       2.43000         2         5        -7  
     262           rtu1782      17.46000         2         1        -4  
     263           rtu1801       3.33000         2      2793     -2795  
     264           rtu1802       4.32000         2      2789     -2792  
     265           rtu1811       3.06000         2      2796     -2798  
     266           rtu1812       0.90000         2      2799     -2801  
     267           rtu1821       2.52000         2      2786     -2788  
     268           rtu1822       2.79000         2      2782     -2785  
     269           rtu1831       8.73000         2      2708     -2710  
     270           rtu1832      17.46000         2      2705     -2707  
     271           rtu1841       8.64000         2      2702     -2704  
     272           rtu1842       6.93000         2      2699     -2701  
     273           rtu1851      10.62000         2      2665     -2669  
     274           rtu1852      13.95000         2      2670     -2672  
     275           rtu1861      11.88000         2      2623     -2628  
     276           rtu1862      21.96000         2      2618     -2622  
     277           rtu1871       4.32000         2      2640     -2643  
     278           rtu1872      11.34000         2      2636     -2639  
     279           rtu1881       2.61000         2      2655     -2658  
     280           rtu1882       6.39000         2      2652     -2654  
     281           rtu1891       2.25000         2      2661     -2664  
     282           rtu1892       2.43000         2      2659     -2660  
     283           rtu1901       7.65000         2      2632     -2635  
     284           rtu1902      21.60000         2      2629     -2631  
     285           rtu1911       9.90000         2      4440     -4444  
     286           rtu1912      18.54000         2      4434     -4439  
     287           rtu1921      25.47000         2      4396     -4400  
     288           rtu1922      15.12000         2      4401     -4405  
     289           rtu1951       5.22000         2      4419     -4421  
     290           rtu1952       4.68000         2      4416     -4418  
     291           rtu1961      25.47000         2      4469     -4474  
     292           rtu1962      49.68000         2      4475     -4479  
     293           rtu1971       8.55000         2      4480     -4483  
     294           rtu1972       3.24000         2      4484     -4488  
     295           rtu1981       7.29000         2      4536     -4538  
     296           rtu1982       3.87000         2      4531     -4535  
     297           rtu1991       2.61000         2      4587     -4590  
     298           rtu1992       6.93000         2      4591     -4594  
     299           rtu2001      11.16000         2      4519     -4523  
     300           rtu2002       7.11000         2      4515     -4518  
     301           rtu2011       8.46000         2      4501     -4505  
     302           rtu2012      14.40000         2      4497     -4500  
     303           rtu2021      14.58000         2      4448     -4451  
     304           rtu2022       5.40000         2      4445     -4447  
     305           rtu2041      13.77000         2      4524     -4527  
     306           rtu2042      17.10000         2      4528     -4530  
     307           rtu2061      15.39000         2      4376     -4380  
     308           rtu2062      15.75000         2      4381     -4385  
     309           rtu2071       3.06000         2      2320     -2324  
     310           rtu2072       2.43000         2      2325     -2326  
     311           rtu2081      14.22000         2      2290     -2294  
     312           rtu2082      22.86000         2      2286     -2289  
     313           rtu2091       4.77000         2      2306     -2310  
     314           rtu2092       7.74000         2      2302     -2305  
     315           rtu2101       4.59000         2      2298     -2301  
     316           rtu2102      13.77000         2      2295     -2297  
     317           rtu2111       3.33000         2      4277     -4280  
     318           rtu2112       5.22000         2      4274     -4276  
     319           rtu2121       3.60000         2      4270     -4273  
     320           rtu2122       3.15000         2      4266     -4269  
     321           rtu2131       3.51000         2      4263     -4265  
     322           rtu2132      12.51000         2      4259     -4262  
     323           rtu2141       9.81000         2      4230     -4234  
     324           rtu2142      16.02000         2      4225     -4229  
     325           rtu2151       8.73000         2      4251     -4254  
     326           rtu2152       4.59000         2      4255     -4258  
     327           rtu2171       7.29000         2      4192     -4195  
     328           rtu2172       6.48000         2      4196     -4201  
     329           rtu2191       5.31000         2      4142     -4145  
     330           rtu2192       4.50000         2      4146     -4147  
     331           rtu2201       3.15000         2      1916     -1919  
     332           rtu2202       3.69000         1      1915  
     333           rtu2211      13.77000         2      1887     -1892  
     334           rtu2212       9.36000         2      1893     -1897  
     335           rtu2221      15.57000         2      1877     -1881  
     336           rtu2222      19.53000         2      1882     -1886  
     337           rtu2241       7.92000         2      1675     -1680  
     338           rtu2242       9.90000         2      1671     -1674  
     339           rtu2251       7.92000         2      1663     -1667  
     340           rtu2252       8.73000         2      1668     -1670  
     341           rtu2261      15.48000         2      1653     -1658  
     342           rtu2262       7.47000         2      1659     -1662  
     343           rtu2271       8.28000         2      1649     -1652  
     344           rtu2272      27.63000         2      1646     -1648  
     345           rtu2281       2.25000         2      1634     -1636  
     346           rtu2282       2.70000         2      1631     -1633  
     347           rtu2291       7.38000         2      1617     -1619  
     348           rtu2292      13.77000         2      1620     -1622  
     349           rtu2301       1.44000         2      1408     -1409  
     350           rtu2302       0.81000         2      1403     -1407  
     351           rtu2311       8.01000         2      1384     -1388  
     352           rtu2312       2.88000         2      1382     -1383  
     353           rtu2321       5.04000         2      1374     -1376  
     354           rtu2322       4.68000         2      1377     -1381  
     355           rtu2341      23.58000         2      4607     -4611  
     356           rtu2342      40.86000         2      4603     -4606  
     357           rtu2351       7.29000         2      1075     -1078  
     358           rtu2352       3.06000         2      1079     -1081  
     359           rtu2361      11.88000         2      1263     -1267  
     360           rtu2362      16.83000         2      1259     -1262  
     361           rtu2371      10.44000         2      1233     -1237  
     362           rtu2372      33.21000         2      1229     -1232  
     363           rtu2381      17.37000         2      1188     -1194  
     364           rtu2382      32.31000         2      1184     -1187  
     365           rtu2391       4.23000         2      1209     -1213  
     366           rtu2392      15.57000         2      1214     -1218  
     367           rtu2401       8.19000         2      1198     -1201  
     368           rtu2402       4.50000         2      1195     -1197  
     369           rtu2411      14.04000         2       682      -686  
     370           rtu2412      15.75000         2       678      -681  
     371           rtu2431      15.66000         2      1161     -1163  
     372           rtu2432      11.25000         2      1164     -1166  
     373           rtu2451       6.30000         2       675      -677  
     374           rtu2452      19.17000         2       672      -674  
     375           rtu2461       3.33000         2       668      -671  
     376           rtu2462       9.00000         2       665      -667  
     377           rtu2481      14.67000         2      1130     -1135  
     378           rtu2482       8.91000         2      1136     -1140  
     379           rtu2501      12.96000         2       655      -657  
     380           rtu2502      33.48000         2       651      -654  
     381           rtu2521      12.51000         2      4173     -4176  
     382           rtu2522      10.71000         2      4168     -4172  
     383           rtu2551       6.75000         2      2230     -2234  
     384           rtu2552      19.44000         2      2235     -2238  
     385           rtu2561       3.33000         2      2239     -2242  
     386           rtu2562       2.34000         2      2243     -2244  
     387           rtu2571       5.67000         2      2253     -2257  
     388           rtu2572       5.31000         2      2258     -2261  
     389           rtu2581       3.96000         2      2266     -2270  
     390           rtu2582       7.20000         2      2262     -2265  
     391           rtu2591       3.60000         2      2455     -2459  
     392           rtu2592       3.96000         2      2451     -2454  
     393           rtu2601      31.14000         2      2590     -2595  
     394           rtu2602      80.64000         2      2596     -2601  
     395           rtu2611       3.33000         2      2468     -2470  
     396           rtu2612       3.42000         2      2471     -2473  
     397           rtu2621      10.26000         2      2516     -2521  
     398           rtu2622      11.88000         2      2522     -2525  
     399           rtu2631       9.27000         2      2478     -2481  
     400           rtu2632      18.54000         2      2474     -2477  
     401           rtu2641       0.45000         2      2498     -2499  
     402           rtu2642       3.60000         2      2500     -2504  
     403           rtu2651       1.62000         2      2534     -2537  