management.sch: written by SWAT+ editor v2.3.1 on 2023-08-15 15:10 for SWAT+ rev.60.5.7
name                                       numb_ops  numb_auto            op_typ       mon       day        hu_sch          op_data1          op_data2      op_data3  
agrr_rot                         25          0  
                                                            plnt         7         1       0.00000              tobc              null       0.00000  
                                                            fert         7        16       0.00000              beef_fr        side_dress     300.00000  
                                                            fert         7        31       0.00000              beef_fr        side_dress     300.00000  
                                                            hvkl        11         1       0.00000              tobc        vegetables       0.00000  
                                                            till        11         7       0.00000          diskplow              null       0.00000  
                                                            plnt        11        15       0.00000              corn              null       0.00000  
                                                            fert        11        15       0.00000          06_24_24        side_dress     300.00000  
                                                            pest        12         4       0.00000           roundup     aerial_liquid     200.00000  
                                                            fert        12         9       0.00000              beef_fr        side_dress     100.00000  
                                                            fert        12        24       0.00000              beef_fr        side_dress     100.00000  
                                                            harv         4        14       0.00000              corn             grain       0.00000  
                                                            till         6        25       0.00000          diskplow              null       0.00000  
                                                            plnt         7         1       0.00000              tobc              null       0.00000  
                                                            fert         7        16       0.00000              veal_fr        side_dress     300.00000  
                                                            fert         7        31       0.00000              beef_fr        side_dress     300.00000  
                                                            hvkl        11         1       0.00000              tobc        vegetables       0.00000  
                                                            till        11         5       0.00000          diskplow              null       0.00000  
                                                            plnt        11         7       0.00000              soyb              null       0.00000  
                                                            fert        11         7       0.00000          00_15_00        side_dress     250.00000  
                                                            pest        12        30       0.00000           roundup     aerial_liquid     200.00000  
                                                            pest         1        14       0.00000           roundup     aerial_liquid     200.00000  
                                                            pest         1        29       0.00000           roundup     aerial_liquid     200.00000  
                                                            pest         2        13       0.00000           roundup     aerial_liquid     200.00000  
                                                            harv         4         9       0.00000              soyb             grain       0.00000  
                                                            till         6        25       0.00000          diskplow              null       0.00000  
soyb_rot                         14          1  
                                                   pl_hv_winter1   soyb  
                                                            plnt         4        12       0.00000              oats              null       0.00000  
                                                            fert         4        12       0.00000          beef_fr        side_dress     350.00000  
                                                            graz         5        20       0.00000         dairy_low              null       7.00000  
                                                            fert         5        30       0.00000              beef_fr        side_dress     300.00000  
                                                            pest         6        19       0.00000          dacamine     aerial_liquid       1.00000  
                                                            graz         9        12       0.00000         dairy_low              null       7.00000  
                                                            till        11         1       0.00000          diskplow              null       0.00000  
                                                            plnt        11         7       0.00000              soyb              null       0.00000  
                                                            pest        12        30       0.00000           roundup     aerial_liquid     200.00000  
                                                            pest         1        14       0.00000           roundup     aerial_liquid     200.00000  
                                                            pest         1        29       0.00000           roundup     aerial_liquid     200.00000  
                                                            pest         2        13       0.00000           roundup     aerial_liquid      20.00000  
                                                            harv         4         9       0.00000              soyb             grain       0.00000  
                                                            till         4        10       0.00000          diskplow              null       0.00000  
pastagens                        44          1  
                                                   pl_hv_summer1   wpas  
                                                            plnt         4        12       0.00000              oats              null       0.00000  
                                                            fert         4        12       0.00000         beef_fr        side_dress     350.00000  
                                                            graz         5        20       0.00000         dairy_low              null       7.00000  
                                                            fert         5        30       0.00000              veal_fr        side_dress     300.00000  
                                                            pest         6        19       0.00000          dacamine     aerial_liquid       1.00000  
                                                            graz         9        12       0.00000         dairy_low              null       7.00000  
                                                            till        11         1       0.00000          diskplow              null       0.00000  
                                                            plnt        11         7       0.00000              soyb              null       0.00000  
                                                            pest        12        30       0.00000           roundup     aerial_liquid     200.00000  
                                                            pest         1        14       0.00000           roundup     aerial_liquid     200.00000  
                                                            pest         1        29       0.00000           roundup     aerial_liquid     200.00000  
                                                            pest         2        13       0.00000           roundup     aerial_liquid     200.00000  
                                                            harv         4         9       0.00000              soyb             grain       0.00000  
                                                            till         4        12       0.00000          diskplow              null       0.00000  
                                                            plnt         4        15       0.00000              oats              null       0.00000  
                                                            fert         4        15       0.00000          05_10_10        side_dress     350.00000  
                                                            graz         5        23       0.00000         dairy_low              null       7.00000  
                                                            fert         6         3       0.00000              beef_fr        side_dress     300.00000  
                                                            pest         6        22       0.00000          dacamine     aerial_liquid       1.00000  
                                                            graz         9        15       0.00000         dairy_low              null       7.00000  
                                                            till        11         3       0.00000          diskplow              null       0.00000  
                                                            plnt        11        15       0.00000              corn              null       0.00000  
                                                            fert        11        15       0.00000          06_24_24        side_dress     300.00000  
                                                            pest        12         4       0.00000           roundup     aerial_liquid     200.00000  
                                                            fert        12         9       0.00000              beef_fr        side_dress     100.00000  
                                                            fert        12        24       0.00000              beef_fr        side_dress     100.00000  
                                                            harv         4        11       0.00000              corn             grain       0.00000  
                                                            till         4        14       0.00000          diskplow              null       0.00000  
                                                            plnt         4        16       0.00000              oats              null       0.00000  
                                                            fert         4        16       0.00000          veal_fr        side_dress     350.00000  
                                                            graz         5        24       0.00000         dairy_low              null       7.00000  
                                                            fert         6         3       0.00000              beef_fr        side_dress     300.00000  
                                                            pest         6        23       0.00000          dacamine     aerial_liquid       1.00000  
                                                            graz         9        16       0.00000         dairy_low              null       7.00000  
                                                            till        12        20       0.00000          diskplow              null       0.00000  
                                                            plnt        12        25       0.00000              sghy              null       0.00000  
                                                            fert        12        25       0.00000              beef_fr        side_dress      40.00000  
                                                            fert        12        25       0.00000            elem_p        side_dress      50.00000  
                                                            fert         1        15       0.00000              beef_fr        side_dress      45.00000  
                                                            fert         1        15       0.00000            elem_p        side_dress      50.00000  
                                                            graz         1        29       0.00000         dairy_low              null       4.00000  
                                                            fert         2         5       0.00000              veal_fr        side_dress      45.00000  
                                                            graz         3        20       0.00000         dairy_low              null       4.00000  
                                                            till         4         1       0.00000          diskplow              null       0.00000  
eucalipto                         3          1  
                                                      forest_cut  
                                                            plnt         9        15       0.00000              euca              null       0.00000  
                                                            harv        11        13       0.00000               euc        forest_cut       0.00000  
                                                            harv        11        20       0.00000              euca        forest_cut       0.00000  
