plant.ini: written by SWAT+ editor v2.3.1 on 2023-08-15 15:10 for SWAT+ rev.60.5.7
pcom_name          plt_cnt  rot_yr_ini          plt_name     lc_status      lai_init       bm_init      phu_init      plnt_pop      yrs_init      rsd_init  
frst_comm                1         1  
                                        frst             y       2.00000   50000.00000       0.00000       0.00000       1.00000   10000.00000  
rngb_comm                1         1  
                                        rngb             y       2.00000   50000.00000       0.00000       0.00000       1.00000   10000.00000  
soyb_comm                1         1  
                                        soyb             n       0.00000       0.00000       0.00000       0.00000       0.00000   10000.00000  
euca_comm                1         1  
                                        euca             y       2.00000   50000.00000       0.00000       0.00000       1.00000   10000.00000  
wpas_comm                1         1  
                                        wpas             n       0.00000       0.00000       0.00000       0.00000       0.00000   10000.00000  
agrr_comm                1         1  
                                        agrr             n       0.00000       0.00000       0.00000       0.00000       0.00000   10000.00000  
wetw_comm                1         1  
                                        wetw             y       2.00000   50000.00000       0.00000       0.00000       1.00000   10000.00000  
