rout_unit.con: written by SWAT+ editor v2.3.1 on 2023-08-15 15:10 for SWAT+ rev.60.5.7
      id  name                gis_id          area           lat           lon          elev       rtu               wst       cst      ovfl      rule   out_tot       obj_typ    obj_id       hyd_typ          frac  
       1  rtu0011                 11       7.92000     -31.50127     -52.64434     198.51136         1     s31500s52650w         0         0         0         2           sdc         1           tot       1.00000           aqu        25           rhg       1.00000  
       2  rtu0012                 12       0.90000     -31.50326     -52.64188     216.40000         2     s31500s52650w         0         0         0         4           sdc         1           sur       0.10000            ru         1           sur       0.90000            ru         1           lat       1.00000           aqu        26           rhg       1.00000  
       3  rtu0021                 21       5.49000     -31.50414     -52.64326     201.37705         3     s31500s52650w         0         0         0         2           sdc         2           tot       1.00000           aqu        25           rhg       1.00000  
       4  rtu0022                 22       2.34000     -31.50538     -52.64266     214.80769         4     s31510s52650w         0         0         0         4           sdc         2           sur       0.30000            ru         3           sur       0.70000            ru         3           lat       1.00000           aqu        26           rhg       1.00000  
       5  rtu0031                 31      10.08000     -31.50432     -52.63457     233.61607         5     s31500s52630w         0         0         0         2           sdc         3           tot       1.00000           aqu        25           rhg       1.00000  
       6  rtu0032                 32      27.00000     -31.50417     -52.63236     260.36000         6     s31500s52630w         0         0         0         4           sdc         3           sur       0.73000            ru         5           sur       0.27000            ru         5           lat       1.00000           aqu        26           rhg       1.00000  
       7  rtu0041                 41       2.34000     -31.50300     -52.64595     198.57692         7     s31500s52650w         0         0         0         2           sdc         4           tot       1.00000           aqu        21           rhg       1.00000  
       8  rtu0042                 42       0.09000     -31.50251     -52.64724     209.00000         8     s31500s52650w         0         0         0         4           sdc         4           sur       0.04000            ru         7           sur       0.96000            ru         7           lat       1.00000           aqu        22           rhg       1.00000  
       9  rtu0051                 51       9.99000     -31.49930     -52.64571     200.06306         9     s31500s52650w         0         0         0         2           sdc         5           tot       1.00000           aqu        21           rhg       1.00000  
      10  rtu0052                 52       9.81000     -31.49869     -52.64791     226.50459        10     s31500s52650w         0         0         0         4           sdc         5           sur       0.50000            ru         9           sur       0.50000            ru         9           lat       1.00000           aqu        22           rhg       1.00000  
      11  rtu0061                 61       3.24000     -31.49678     -52.64268     200.16667        11     s31490s52640w         0         0         0         2           sdc         6           tot       1.00000           aqu        15           rhg       1.00000  
      12  rtu0062                 62       6.48000     -31.49543     -52.64040     232.34722        12     s31490s52640w         0         0         0         4           sdc         6           sur       0.67000            ru        11           sur       0.33000            ru        11           lat       1.00000           aqu        16           rhg       1.00000  
      13  rtu0071                 71      14.13000     -31.49820     -52.63965     208.85987        13     s31490s52640w         0         0         0         2           sdc         7           tot       1.00000           aqu        15           rhg       1.00000  
      14  rtu0072                 72      15.30000     -31.49868     -52.63792     228.42941        14     s31500s52630w         0         0         0         4           sdc         7           sur       0.52000            ru        13           sur       0.48000            ru        13           lat       1.00000           aqu        16           rhg       1.00000  
      15  rtu0081                 81      21.78000     -31.49518     -52.62997     239.65702        15     s31500s52630w         0         0         0         2           sdc         8           tot       1.00000           aqu        15           rhg       1.00000  
      16  rtu0082                 82      16.38000     -31.49528     -52.63042     257.31868        16     s31500s52630w         0         0         0         4           sdc         8           sur       0.43000            ru        15           sur       0.57000            ru        15           lat       1.00000           aqu        16           rhg       1.00000  
      17  rtu0091                 91      10.53000     -31.50001     -52.67764     239.34188        17     s31510s52680w         0         0         0         2           sdc         9           tot       1.00000           aqu        19           rhg       1.00000  
      18  rtu0092                 92       8.37000     -31.49755     -52.67970     251.83871        18     s31490s52680w         0         0         0         4           sdc         9           sur       0.44000            ru        17           sur       0.56000            ru        17           lat       1.00000           aqu        20           rhg       1.00000  
      19  rtu0111                111       8.19000     -31.49095     -52.62565     248.48352        19     s31500s52630w         0         0         0         2           sdc        10           tot       1.00000           aqu        15           rhg       1.00000  
      20  rtu0112                112      15.75000     -31.48878     -52.62471     266.85714        20     s31500s52630w         0         0         0         4           sdc        10           sur       0.66000            ru        19           sur       0.34000            ru        19           lat       1.00000           aqu        16           rhg       1.00000  
      21  rtu0121                121       7.65000     -31.49983     -52.68319     245.40000        21     s31500s52690w         0         0         0         2           sdc        11           tot       1.00000           aqu        19           rhg       1.00000  
      22  rtu0122                122       9.54000     -31.49843     -52.68345     260.89623        22     s31500s52690w         0         0         0         4           sdc        11           sur       0.55000            ru        21           sur       0.45000            ru        21           lat       1.00000           aqu        20           rhg       1.00000  
      23  rtu0131                131      10.17000     -31.49198     -52.62198     249.40708        23     s31500s52630w         0         0         0         2           sdc        12           tot       1.00000           aqu        15           rhg       1.00000  
      24  rtu0132                132      35.82000     -31.49124     -52.61931     270.62814        24     s31500s52630w         0         0         0         4           sdc        12           sur       0.78000            ru        23           sur       0.22000            ru        23           lat       1.00000           aqu        16           rhg       1.00000  
      25  rtu0151                151       7.20000     -31.49460     -52.62570     248.51250        25     s31500s52630w         0         0         0         2           sdc        13           tot       1.00000           aqu        15           rhg       1.00000  
      26  rtu0152                152       2.43000     -31.49373     -52.62274     259.00000        26     s31500s52630w         0         0         0         4           sdc        13           sur       0.25000            ru        25           sur       0.75000            ru        25           lat       1.00000           aqu        16           rhg       1.00000  
      27  rtu0161                161       5.58000     -31.49590     -52.62199     255.90323        27     s31500s52630w         0         0         0         2           sdc        14           tot       1.00000           aqu        15           rhg       1.00000  
      28  rtu0162                162      19.71000     -31.49561     -52.61920     277.34247        28     s31500s52630w         0         0         0         4           sdc        14           sur       0.78000            ru        27           sur       0.22000            ru        27           lat       1.00000           aqu        16           rhg       1.00000  
      29  rtu0171                171      16.47000     -31.50039     -52.69114     254.16940        29     s31500s52690w         0         0         0         2           sdc        15           tot       1.00000           aqu        23           rhg       1.00000  
      30  rtu0172                172      25.29000     -31.50008     -52.69259     273.87900        30     s31500s52690w         0         0         0         4           sdc        15           sur       0.61000            ru        29           sur       0.39000            ru        29           lat       1.00000           aqu        24           rhg       1.00000  
      31  rtu0181                181      12.24000     -31.49873     -52.62284     263.94853        31     s31500s52630w         0         0         0         2           sdc        16           tot       1.00000           aqu        15           rhg       1.00000  
      32  rtu0182                182      18.27000     -31.49959     -52.62084     283.90640        32     s31500s52630w         0         0         0         4           sdc        16           sur       0.60000            ru        31           sur       0.40000            ru        31           lat       1.00000           aqu        16           rhg       1.00000  
      33  rtu0191                191       7.02000     -31.50117     -52.69687     263.05128        33     s31500s52690w         0         0         0         2           sdc        17           tot       1.00000           aqu        29           rhg       1.00000  
      34  rtu0192                192       9.09000     -31.50203     -52.69722     280.23762        34     s31500s52690w         0         0         0         4           sdc        17           sur       0.56000            ru        33           sur       0.44000            ru        33           lat       1.00000           aqu        30           rhg       1.00000  
      35  rtu0201                201       4.59000     -31.50172     -52.67781     238.15686        35     s31510s52680w         0         0         0         2           sdc        18           tot       1.00000           aqu        31           rhg       1.00000  
      36  rtu0202                202       5.85000     -31.50258     -52.67963     248.87692        36     s31510s52680w         0         0         0         4           sdc        18           sur       0.56000            ru        35           sur       0.44000            ru        35           lat       1.00000           aqu        32           rhg       1.00000  
      37  rtu0211                211      14.22000     -31.50144     -52.68326     242.65190        37     s31500s52690w         0         0         0         2           sdc        19           tot       1.00000           aqu        19           rhg       1.00000  
      38  rtu0212                212       9.63000     -31.50302     -52.68238     252.83178        38     s31510s52680w         0         0         0         4           sdc        19           sur       0.40000            ru        37           sur       0.60000            ru        37           lat       1.00000           aqu        20           rhg       1.00000  
      39  rtu0221                221      10.53000     -31.50351     -52.68823     246.59829        39     s31500s52690w         0         0         0         2           sdc        20           tot       1.00000           aqu        35           rhg       1.00000  
      40  rtu0222                222      10.98000     -31.50378     -52.69035     259.75410        40     s31500s52690w         0         0         0         4           sdc        20           sur       0.51000            ru        39           sur       0.49000            ru        39           lat       1.00000           aqu        36           rhg       1.00000  
      41  rtu0231                231      25.56000     -31.50867     -52.67966     247.51056        41     s31510s52680w         0         0         0         2           sdc        21           tot       1.00000           aqu        31           rhg       1.00000  
      42  rtu0232                232      48.60000     -31.50978     -52.68053     262.21481        42     s31510s52680w         0         0         0         4           sdc        21           sur       0.66000            ru        41           sur       0.34000            ru        41           lat       1.00000           aqu        32           rhg       1.00000  
      43  rtu0241                241       4.32000     -31.50340     -52.69972     277.27083        43     s31510s52700w         0         0         0         2           sdc        22           tot       1.00000           aqu        29           rhg       1.00000  
      44  rtu0242                242       9.45000     -31.50207     -52.70137     297.47619        44     s31510s52700w         0         0         0         4           sdc        22           sur       0.69000            ru        43           sur       0.31000            ru        43           lat       1.00000           aqu        30           rhg       1.00000  
      45  rtu0251                251       6.57000     -31.50489     -52.69923     275.21918        45     s31510s52700w         0         0         0         2           sdc        23           tot       1.00000           aqu        29           rhg       1.00000  
      46  rtu0252                252      20.61000     -31.50769     -52.69990     292.89083        46     s31510s52700w         0         0         0         4           sdc        23           sur       0.76000            ru        45           sur       0.24000            ru        45           lat       1.00000           aqu        30           rhg       1.00000  
      47  rtu0261                261       5.40000     -31.50497     -52.68657     247.71667        47     s31500s52690w         0         0         0         2           sdc        24           tot       1.00000           aqu        19           rhg       1.00000  
      48  rtu0262                262       9.81000     -31.50741     -52.68541     260.30275        48     s31510s52680w         0         0         0         4           sdc        24           sur       0.64000            ru        47           sur       0.36000            ru        47           lat       1.00000           aqu        20           rhg       1.00000  
      49  rtu0271                271       6.93000     -31.50416     -52.61982     277.66234        49     s31500s52630w         0         0         0         2           sdc        25           tot       1.00000           aqu        15           rhg       1.00000  
      50  rtu0272                272      31.32000     -31.50554     -52.61979     300.86782        50     s31510s52630w         0         0         0         4           sdc        25           sur       0.82000            ru        49           sur       0.18000            ru        49           lat       1.00000           aqu        16           rhg       1.00000  
      51  rtu0281                281       5.13000     -31.50470     -52.66257     235.47368        51     s31500s52660w         0         0         0         2           sdc        26           tot       1.00000           aqu        13           rhg       1.00000  
      52  rtu0282                282      16.65000     -31.50491     -52.66411     257.78378        52     s31500s52660w         0         0         0         4           sdc        26           sur       0.76000            ru        51           sur       0.24000            ru        51           lat       1.00000           aqu        14           rhg       1.00000  
      53  rtu0291                291       2.43000     -31.50491     -52.63706     230.66667        53     s31500s52630w         0         0         0         2           sdc        27           tot       1.00000           aqu        25           rhg       1.00000  
      54  rtu0292                292      13.95000     -31.50783     -52.63462     267.38710        54     s31510s52630w         0         0         0         4           sdc        27           sur       0.85000            ru        53           sur       0.15000            ru        53           lat       1.00000           aqu        26           rhg       1.00000  
      55  rtu0311                311       3.78000     -31.50090     -52.66179     241.85714        55     s31500s52660w         0         0         0         2           sdc        28           tot       1.00000           aqu        13           rhg       1.00000  
      56  rtu0312                312       8.10000     -31.50215     -52.66363     258.10000        56     s31500s52660w         0         0         0         4           sdc        28           sur       0.68000            ru        55           sur       0.32000            ru        55           lat       1.00000           aqu        14           rhg       1.00000  
      57  rtu0321                321       8.10000     -31.49791     -52.66242     241.54444        57     s31500s52660w         0         0         0         2           sdc        29           tot       1.00000           aqu        13           rhg       1.00000  
      58  rtu0322                322      19.26000     -31.49709     -52.66001     266.92056        58     s31500s52660w         0         0         0         4           sdc        29           sur       0.70000            ru        57           sur       0.30000            ru        57           lat       1.00000           aqu        14           rhg       1.00000  
      59  rtu0331                331       3.78000     -31.49804     -52.66341     240.57143        59     s31500s52660w         0         0         0         2           sdc        30           tot       1.00000           aqu        13           rhg       1.00000  
      60  rtu0332                332       6.57000     -31.49830     -52.66531     262.39726        60     s31500s52660w         0         0         0         4           sdc        30           sur       0.63000            ru        59           sur       0.37000            ru        59           lat       1.00000           aqu        14           rhg       1.00000  
      61  rtu0341                341       8.37000     -31.49363     -52.66337     244.41935        61     s31500s52660w         0         0         0         2           sdc        31           tot       1.00000           aqu        13           rhg       1.00000  
      62  rtu0342                342      10.80000     -31.49380     -52.66542     267.63333        62     s31500s52660w         0         0         0         4           sdc        31           sur       0.56000            ru        61           sur       0.44000            ru        61           lat       1.00000           aqu        14           rhg       1.00000  
      63  rtu0361                361      20.16000     -31.48577     -52.66323     250.72768        63     s31480s52660w         0         0         0         2           sdc        32           tot       1.00000           aqu        13           rhg       1.00000  
      64  rtu0362                362      18.54000     -31.48470     -52.66300     267.10680        64     s31480s52660w         0         0         0         4           sdc        32           sur       0.48000            ru        63           sur       0.52000            ru        63           lat       1.00000           aqu        14           rhg       1.00000  
      65  rtu0381                381      10.17000     -31.49892     -52.67360     249.10619        65     s31490s52680w         0         0         0         2           sdc        33           tot       1.00000           aqu         5           rhg       1.00000  
      66  rtu0382                382      16.11000     -31.49661     -52.67050     282.03911        66     s31500s52660w         0         0         0         4           sdc        33           sur       0.61000            ru        65           sur       0.39000            ru        65           lat       1.00000           aqu         6           rhg       1.00000  
      67  rtu0391                391       9.81000     -31.49618     -52.67414     256.14679        67     s31490s52680w         0         0         0         2           sdc        34           tot       1.00000           aqu         5           rhg       1.00000  
      68  rtu0392                392      14.94000     -31.49397     -52.67235     278.62651        68     s31490s52680w         0         0         0         4           sdc        34           sur       0.60000            ru        67           sur       0.40000            ru        67           lat       1.00000           aqu         6           rhg       1.00000  
      69  rtu0411                411       2.70000     -31.48061     -52.66284     261.16667        69     s31480s52660w         0         0         0         2           sdc        35           tot       1.00000           aqu         9           rhg       1.00000  
      70  rtu0412                412       9.90000     -31.47744     -52.66124     298.31818        70     s31480s52660w         0         0         0         4           sdc        35           sur       0.79000            ru        69           sur       0.21000            ru        69           lat       1.00000           aqu        10           rhg       1.00000  
      71  rtu0421                421      12.69000     -31.49598     -52.67740     246.07092        71     s31490s52680w         0         0         0         2           sdc        36           tot       1.00000           aqu         5           rhg       1.00000  
      72  rtu0422                422      16.74000     -31.49510     -52.67895     261.55376        72     s31490s52680w         0         0         0         4           sdc        36           sur       0.57000            ru        71           sur       0.43000            ru        71           lat       1.00000           aqu         6           rhg       1.00000  
      73  rtu0431                431       6.21000     -31.48042     -52.66438     257.95652        73     s31480s52660w         0         0         0         2           sdc        37           tot       1.00000           aqu         9           rhg       1.00000  
      74  rtu0432                432       3.78000     -31.47972     -52.66445     273.54762        74     s31480s52660w         0         0         0         4           sdc        37           sur       0.38000            ru        73           sur       0.62000            ru        73           lat       1.00000           aqu        10           rhg       1.00000  
      75  rtu0441                441       7.92000     -31.47796     -52.66485     282.59091        75     s31480s52660w         0         0         0         2           sdc        38           tot       1.00000           aqu         9           rhg       1.00000  
      76  rtu0442                442      12.87000     -31.47562     -52.66300     316.66434        76     s31480s52660w         0         0         0         4           sdc        38           sur       0.62000            ru        75           sur       0.38000            ru        75           lat       1.00000           aqu        10           rhg       1.00000  
      77  rtu0451                451      11.61000     -31.49463     -52.64407     204.06977        77     s31490s52640w         0         0         0         2           sdc        39           tot       1.00000           aqu        11           rhg       1.00000  
      78  rtu0452                452       9.63000     -31.49394     -52.64261     228.71028        78     s31490s52640w         0         0         0         4           sdc        39           sur       0.45000            ru        77           sur       0.55000            ru        77           lat       1.00000           aqu        12           rhg       1.00000  
      79  rtu0461                461       6.03000     -31.49256     -52.67917     249.31343        79     s31490s52680w         0         0         0         2           sdc        40           tot       1.00000           aqu         5           rhg       1.00000  
      80  rtu0462                462      14.67000     -31.49260     -52.68199     269.19632        80     s31490s52680w         0         0         0         4           sdc        40           sur       0.71000            ru        79           sur       0.29000            ru        79           lat       1.00000           aqu         6           rhg       1.00000  
      81  rtu0471                471       5.76000     -31.48019     -52.66804     262.73438        81     s31480s52670w         0         0         0         2           sdc        41           tot       1.00000           aqu         9           rhg       1.00000  
      82  rtu0472                472       7.20000     -31.48114     -52.66936     277.52500        82     s31480s52670w         0         0         0         4           sdc        41           sur       0.56000            ru        81           sur       0.44000            ru        81           lat       1.00000           aqu        10           rhg       1.00000  
      83  rtu0481                481       4.77000     -31.47836     -52.67017     271.83019        83     s31480s52670w         0         0         0         2           sdc        42           tot       1.00000           aqu         9           rhg       1.00000  
      84  rtu0482                482      19.26000     -31.47758     -52.67392     299.15421        84     s31480s52670w         0         0         0         4           sdc        42           sur       0.80000            ru        83           sur       0.20000            ru        83           lat       1.00000           aqu        10           rhg       1.00000  
      85  rtu0491                491      10.17000     -31.48763     -52.68087     254.67257        85     s31490s52680w         0         0         0         2           sdc        43           tot       1.00000           aqu         5           rhg       1.00000  
      86  rtu0492                492      12.87000     -31.48764     -52.68334     269.36364        86     s31490s52680w         0         0         0         4           sdc        43           sur       0.56000            ru        85           sur       0.44000            ru        85           lat       1.00000           aqu         6           rhg       1.00000  
      87  rtu0521                521      14.94000     -31.48513     -52.67884     263.60241        87     s31490s52680w         0         0         0         2           sdc        44           tot       1.00000           aqu         5           rhg       1.00000  
      88  rtu0522                522      40.50000     -31.48280     -52.67642     286.70889        88     s31480s52670w         0         0         0         4           sdc        44           sur       0.73000            ru        87           sur       0.27000            ru        87           lat       1.00000           aqu         6           rhg       1.00000  
      89  rtu0531                531       5.58000     -31.47698     -52.66894     268.72581        89     s31480s52670w         0         0         0         2           sdc        45           tot       1.00000           aqu         9           rhg       1.00000  
      90  rtu0532                532       4.59000     -31.47686     -52.66873     284.64706        90     s31480s52670w         0         0         0         4           sdc        45           sur       0.45000            ru        89           sur       0.55000            ru        89           lat       1.00000           aqu        10           rhg       1.00000  
      91  rtu0541                541       1.62000     -31.47539     -52.66829     270.11111        91     s31480s52670w         0         0         0         2           sdc        46           tot       1.00000           aqu         1           rhg       1.00000  
      92  rtu0542                542       3.69000     -31.47570     -52.66614     292.34146        92     s31480s52670w         0         0         0         4           sdc        46           sur       0.69000            ru        91           sur       0.31000            ru        91           lat       1.00000           aqu         2           rhg       1.00000  