rout_unit.rtu: written by SWAT+ editor v2.3.1 on 2023-08-15 15:10 for SWAT+ rev.60.5.7
      id              name            define               dlr              topo             field  
       1           rtu0011           rtu0011              null       toportu0011           fld0011  
       2           rtu0012           rtu0012              null       toportu0012           fld0012  
       3           rtu0021           rtu0021              null       toportu0021           fld0021  
       4           rtu0022           rtu0022              null       toportu0022           fld0022  
       5           rtu0031           rtu0031              null       toportu0031           fld0031  
       6           rtu0032           rtu0032              null       toportu0032           fld0032  
       7           rtu0041           rtu0041              null       toportu0041           fld0041  
       8           rtu0042           rtu0042              null       toportu0042           fld0042  
       9           rtu0051           rtu0051              null       toportu0051           fld0051  
      10           rtu0052           rtu0052              null       toportu0052           fld0052  
      11           rtu0061           rtu0061              null       toportu0061           fld0061  
      12           rtu0062           rtu0062              null       toportu0062           fld0062  
      13           rtu0071           rtu0071              null       toportu0071           fld0071  
      14           rtu0072           rtu0072              null       toportu0072           fld0072  
      15           rtu0081           rtu0081              null       toportu0081           fld0081  
      16           rtu0082           rtu0082              null       toportu0082           fld0082  
      17           rtu0091           rtu0091              null       toportu0091           fld0091  
      18           rtu0092           rtu0092              null       toportu0092           fld0092  
      19           rtu0111           rtu0111              null       toportu0111           fld0111  
      20           rtu0112           rtu0112              null       toportu0112           fld0112  
      21           rtu0121           rtu0121              null       toportu0121           fld0121  
      22           rtu0122           rtu0122              null       toportu0122           fld0122  
      23           rtu0131           rtu0131              null       toportu0131           fld0131  
      24           rtu0132           rtu0132              null       toportu0132           fld0132  
      25           rtu0151           rtu0151              null       toportu0151           fld0151  
      26           rtu0152           rtu0152              null       toportu0152           fld0152  
      27           rtu0161           rtu0161              null       toportu0161           fld0161  
      28           rtu0162           rtu0162              null       toportu0162           fld0162  
      29           rtu0171           rtu0171              null       toportu0171           fld0171  
      30           rtu0172           rtu0172              null       toportu0172           fld0172  
      31           rtu0181           rtu0181              null       toportu0181           fld0181  
      32           rtu0182           rtu0182              null       toportu0182           fld0182  
      33           rtu0191           rtu0191              null       toportu0191           fld0191  
      34           rtu0192           rtu0192              null       toportu0192           fld0192  
      35           rtu0201           rtu0201              null       toportu0201           fld0201  
      36           rtu0202           rtu0202              null       toportu0202           fld0202  
      37           rtu0211           rtu0211              null       toportu0211           fld0211  
      38           rtu0212           rtu0212              null       toportu0212           fld0212  
      39           rtu0221           rtu0221              null       toportu0221           fld0221  
      40           rtu0222           rtu0222              null       toportu0222           fld0222  
      41           rtu0231           rtu0231              null       toportu0231           fld0231  
      42           rtu0232           rtu0232              null       toportu0232           fld0232  
      43           rtu0241           rtu0241              null       toportu0241           fld0241  
      44           rtu0242           rtu0242              null       toportu0242           fld0242  
      45           rtu0251           rtu0251              null       toportu0251           fld0251  
      46           rtu0252           rtu0252              null       toportu0252           fld0252  
      47           rtu0261           rtu0261              null       toportu0261           fld0261  
      48           rtu0262           rtu0262              null       toportu0262           fld0262  
      49           rtu0271           rtu0271              null       toportu0271           fld0271  
      50           rtu0272           rtu0272              null       toportu0272           fld0272  
      51           rtu0281           rtu0281              null       toportu0281           fld0281  
      52           rtu0282           rtu0282              null       toportu0282           fld0282  
      53           rtu0291           rtu0291              null       toportu0291           fld0291  
      54           rtu0292           rtu0292              null       toportu0292           fld0292  
      55           rtu0311           rtu0311              null       toportu0311           fld0311  
      56           rtu0312           rtu0312              null       toportu0312           fld0312  
      57           rtu0321           rtu0321              null       toportu0321           fld0321  
      58           rtu0322           rtu0322              null       toportu0322           fld0322  
      59           rtu0331           rtu0331              null       toportu0331           fld0331  
      60           rtu0332           rtu0332              null       toportu0332           fld0332  
      61           rtu0341           rtu0341              null       toportu0341           fld0341  
      62           rtu0342           rtu0342              null       toportu0342           fld0342  
      63           rtu0361           rtu0361              null       toportu0361           fld0361  
      64           rtu0362           rtu0362              null       toportu0362           fld0362  
      65           rtu0381           rtu0381              null       toportu0381           fld0381  
      66           rtu0382           rtu0382              null       toportu0382           fld0382  
      67           rtu0391           rtu0391              null       toportu0391           fld0391  
      68           rtu0392           rtu0392              null       toportu0392           fld0392  
      69           rtu0411           rtu0411              null       toportu0411           fld0411  
      70           rtu0412           rtu0412              null       toportu0412           fld0412  
      71           rtu0421           rtu0421              null       toportu0421           fld0421  
      72           rtu0422           rtu0422              null       toportu0422           fld0422  
      73           rtu0431           rtu0431              null       toportu0431           fld0431  
      74           rtu0432           rtu0432              null       toportu0432           fld0432  
      75           rtu0441           rtu0441              null       toportu0441           fld0441  
      76           rtu0442           rtu0442              null       toportu0442           fld0442  
      77           rtu0451           rtu0451              null       toportu0451           fld0451  
      78           rtu0452           rtu0452              null       toportu0452           fld0452  
      79           rtu0461           rtu0461              null       toportu0461           fld0461  
      80           rtu0462           rtu0462              null       toportu0462           fld0462  
      81           rtu0471           rtu0471              null       toportu0471           fld0471  
      82           rtu0472           rtu0472              null       toportu0472           fld0472  
      83           rtu0481           rtu0481              null       toportu0481           fld0481  
      84           rtu0482           rtu0482              null       toportu0482           fld0482  
      85           rtu0491           rtu0491              null       toportu0491           fld0491  
      86           rtu0492           rtu0492              null       toportu0492           fld0492  
      87           rtu0521           rtu0521              null       toportu0521           fld0521  
      88           rtu0522           rtu0522              null       toportu0522           fld0522  
      89           rtu0531           rtu0531              null       toportu0531           fld0531  
      90           rtu0532           rtu0532              null       toportu0532           fld0532  
      91           rtu0541           rtu0541              null       toportu0541           fld0541  
      92           rtu0542           rtu0542              null       toportu0542           fld0542  
      93           rtu0551           rtu0551              null       toportu0551           fld0551  
      94           rtu0552           rtu0552              null       toportu0552           fld0552  
      95           rtu0561           rtu0561              null       toportu0561           fld0561  
      96           rtu0562           rtu0562              null       toportu0562           fld0562  
      97           rtu0571           rtu0571              null       toportu0571           fld0571  
      98           rtu0572           rtu0572              null       toportu0572           fld0572  
      99           rtu0591           rtu0591              null       toportu0591           fld0591  
     100           rtu0592           rtu0592              null       toportu0592           fld0592  
     101           rtu0601           rtu0601              null       toportu0601           fld0601  
     102           rtu0602           rtu0602              null       toportu0602           fld0602  
     103           rtu0611           rtu0611              null       toportu0611           fld0611  
     104           rtu0612           rtu0612              null       toportu0612           fld0612  
     105           rtu0621           rtu0621              null       toportu0621           fld0621  
     106           rtu0622           rtu0622              null       toportu0622           fld0622  
     107           rtu0641           rtu0641              null       toportu0641           fld0641  
     108           rtu0642           rtu0642              null       toportu0642           fld0642  
     109           rtu0651           rtu0651              null       toportu0651           fld0651  
     110           rtu0652           rtu0652              null       toportu0652           fld0652  
     111           rtu0661           rtu0661              null       toportu0661           fld0661  
     112           rtu0662           rtu0662              null       toportu0662           fld0662  
     113           rtu0671           rtu0671              null       toportu0671           fld0671  
     114           rtu0672           rtu0672              null       toportu0672           fld0672  
     115           rtu0681           rtu0681              null       toportu0681           fld0681  
     116           rtu0682           rtu0682              null       toportu0682           fld0682  
     117           rtu0691           rtu0691              null       toportu0691           fld0691  
     118           rtu0692           rtu0692              null       toportu0692           fld0692  
     119           rtu0701           rtu0701              null       toportu0701           fld0701  
     120           rtu0702           rtu0702              null       toportu0702           fld0702  
     121           rtu0711           rtu0711              null       toportu0711           fld0711  
     122           rtu0712           rtu0712              null       toportu0712           fld0712  
     123           rtu0721           rtu0721              null       toportu0721           fld0721  
     124           rtu0722           rtu0722              null       toportu0722           fld0722  
     125           rtu0731           rtu0731              null       toportu0731           fld0731  
     126           rtu0732           rtu0732              null       toportu0732           fld0732  
     127           rtu0741           rtu0741              null       toportu0741           fld0741  
     128           rtu0742           rtu0742              null       toportu0742           fld0742  
     129           rtu0751           rtu0751              null       toportu0751           fld0751  
     130           rtu0752           rtu0752              null       toportu0752           fld0752  
     131           rtu0761           rtu0761              null       toportu0761           fld0761  
     132           rtu0762           rtu0762              null       toportu0762           fld0762  
     133           rtu0771           rtu0771              null       toportu0771           fld0771  
     134           rtu0772           rtu0772              null       toportu0772           fld0772  
     135           rtu0781           rtu0781              null       toportu0781           fld0781  
     136           rtu0782           rtu0782              null       toportu0782           fld0782  
     137           rtu0791           rtu0791              null       toportu0791           fld0791  
     138           rtu0792           rtu0792              null       toportu0792           fld0792  
     139           rtu0801           rtu0801              null       toportu0801           fld0801  
     140           rtu0802           rtu0802              null       toportu0802           fld0802  
     141           rtu0811           rtu0811              null       toportu0811           fld0811  
     142           rtu0812           rtu0812              null       toportu0812           fld0812  
     143           rtu0821           rtu0821              null       toportu0821           fld0821  
     144           rtu0822           rtu0822              null       toportu0822           fld0822  
     145           rtu0831           rtu0831              null       toportu0831           fld0831  
     146           rtu0832           rtu0832              null       toportu0832           fld0832  
     147           rtu0841           rtu0841              null       toportu0841           fld0841  
     148           rtu0842           rtu0842              null       toportu0842           fld0842  
     149           rtu0851           rtu0851              null       toportu0851           fld0851  
     150           rtu0852           rtu0852              null       toportu0852           fld0852  
     151           rtu0861           rtu0861              null       toportu0861           fld0861  
     152           rtu0862           rtu0862              null       toportu0862           fld0862  
     153           rtu0891           rtu0891              null       toportu0891           fld0891  
     154           rtu0892           rtu0892              null       toportu0892           fld0892  
     155           rtu0911           rtu0911              null       toportu0911           fld0911  
     156           rtu0912           rtu0912              null       toportu0912           fld0912  
     157           rtu0921           rtu0921              null       toportu0921           fld0921  
     158           rtu0922           rtu0922              null       toportu0922           fld0922  
     159           rtu0931           rtu0931              null       toportu0931           fld0931  
     160           rtu0932           rtu0932              null       toportu0932           fld0932  
     161           rtu0941           rtu0941              null       toportu0941           fld0941  
     162           rtu0942           rtu0942              null       toportu0942           fld0942  
     163           rtu0951           rtu0951              null       toportu0951           fld0951  
     164           rtu0952           rtu0952              null       toportu0952           fld0952  
     165           rtu0961           rtu0961              null       toportu0961           fld0961  
     166           rtu0962           rtu0962              null       toportu0962           fld0962  
     167           rtu0971           rtu0971              null       toportu0971           fld0971  
     168           rtu0972           rtu0972              null       toportu0972           fld0972  
     169           rtu0991           rtu0991              null       toportu0991           fld0991  
     170           rtu0992           rtu0992              null       toportu0992           fld0992  
     171           rtu1001           rtu1001              null       toportu1001           fld1001  
     172           rtu1002           rtu1002              null       toportu1002           fld1002  
     173           rtu1021           rtu1021              null       toportu1021           fld1021  
     174           rtu1022           rtu1022              null       toportu1022           fld1022  
     175           rtu1031           rtu1031              null       toportu1031           fld1031  
     176           rtu1032           rtu1032              null       toportu1032           fld1032  
     177           rtu1041           rtu1041              null       toportu1041           fld1041  
     178           rtu1042           rtu1042              null       toportu1042           fld1042  
     179           rtu1061           rtu1061              null       toportu1061           fld1061  
     180           rtu1062           rtu1062              null       toportu1062           fld1062  
     181           rtu1091           rtu1091              null       toportu1091           fld1091  
     182           rtu1092           rtu1092              null       toportu1092           fld1092  
     183           rtu1111           rtu1111              null       toportu1111           fld1111  
     184           rtu1112           rtu1112              null       toportu1112           fld1112  
     185           rtu1131           rtu1131              null       toportu1131           fld1131  
     186           rtu1132           rtu1132              null       toportu1132           fld1132  
     187           rtu1141           rtu1141              null       toportu1141           fld1141  
     188           rtu1142           rtu1142              null       toportu1142           fld1142  
     189           rtu1151           rtu1151              null       toportu1151           fld1151  
     190           rtu1152           rtu1152              null       toportu1152           fld1152  
     191           rtu1201           rtu1201              null       toportu1201           fld1201  
     192           rtu1202           rtu1202              null       toportu1202           fld1202  
     193           rtu1211           rtu1211              null       toportu1211           fld1211  
     194           rtu1212           rtu1212              null       toportu1212           fld1212  
     195           rtu1221           rtu1221              null       toportu1221           fld1221  
     196           rtu1222           rtu1222              null       toportu1222           fld1222  
     197           rtu1231           rtu1231              null       toportu1231           fld1231  
     198           rtu1232           rtu1232              null       toportu1232           fld1232  
     199           rtu1241           rtu1241              null       toportu1241           fld1241  
     200           rtu1242           rtu1242              null       toportu1242           fld1242  
     201           rtu1251           rtu1251              null       toportu1251           fld1251  
     202           rtu1252           rtu1252              null       toportu1252           fld1252  
     203           rtu1261           rtu1261              null       toportu1261           fld1261  
     204           rtu1262           rtu1262              null       toportu1262           fld1262  
     205           rtu1281           rtu1281              null       toportu1281           fld1281  
     206           rtu1282           rtu1282              null       toportu1282           fld1282  
     207           rtu1291           rtu1291              null       toportu1291           fld1291  
     208           rtu1292           rtu1292              null       toportu1292           fld1292  
     209           rtu1331           rtu1331              null       toportu1331           fld1331  
     210           rtu1332           rtu1332              null       toportu1332           fld1332  
     211           rtu1341           rtu1341              null       toportu1341           fld1341  
     212           rtu1342           rtu1342              null       toportu1342           fld1342  
     213           rtu1351           rtu1351              null       toportu1351           fld1351  
     214           rtu1352           rtu1352              null       toportu1352           fld1352  
     215           rtu1371           rtu1371              null       toportu1371           fld1371  
     216           rtu1372           rtu1372              null       toportu1372           fld1372  
     217           rtu1381           rtu1381              null       toportu1381           fld1381  
     218           rtu1382           rtu1382              null       toportu1382           fld1382  
     219           rtu1401           rtu1401              null       toportu1401           fld1401  
     220           rtu1402           rtu1402              null       toportu1402           fld1402  
     221           rtu1411           rtu1411              null       toportu1411           fld1411  
     222           rtu1412           rtu1412              null       toportu1412           fld1412  
     223           rtu1461           rtu1461              null       toportu1461           fld1461  
     224           rtu1462           rtu1462              null       toportu1462           fld1462  
     225           rtu1491           rtu1491              null       toportu1491           fld1491  
     226           rtu1492           rtu1492              null       toportu1492           fld1492  
     227           rtu1501           rtu1501              null       toportu1501           fld1501  
     228           rtu1502           rtu1502              null       toportu1502           fld1502  
     229           rtu1531           rtu1531              null       toportu1531           fld1531  
     230           rtu1532           rtu1532              null       toportu1532           fld1532  
     231           rtu1541           rtu1541              null       toportu1541           fld1541  
     232           rtu1542           rtu1542              null       toportu1542           fld1542  
     233           rtu1561           rtu1561              null       toportu1561           fld1561  
     234           rtu1562           rtu1562              null       toportu1562           fld1562  
     235           rtu1571           rtu1571              null       toportu1571           fld1571  
     236           rtu1572           rtu1572              null       toportu1572           fld1572  
     237           rtu1591           rtu1591              null       toportu1591           fld1591  
     238           rtu1592           rtu1592              null       toportu1592           fld1592  
     239           rtu1611           rtu1611              null       toportu1611           fld1611  
     240           rtu1612           rtu1612              null       toportu1612           fld1612  
     241           rtu1661           rtu1661              null       toportu1661           fld1661  
     242           rtu1662           rtu1662              null       toportu1662           fld1662  
     243           rtu1681           rtu1681              null       toportu1681           fld1681  
     244           rtu1682           rtu1682              null       toportu1682           fld1682  
     245           rtu1691           rtu1691              null       toportu1691           fld1691  
     246           rtu1692           rtu1692              null       toportu1692           fld1692  
     247           rtu1701           rtu1701              null       toportu1701           fld1701  
     248           rtu1702           rtu1702              null       toportu1702           fld1702  
     249           rtu1711           rtu1711              null       toportu1711           fld1711  
     250           rtu1712           rtu1712              null       toportu1712           fld1712  
     251           rtu1721           rtu1721              null       toportu1721           fld1721  
     252           rtu1722           rtu1722              null       toportu1722           fld1722  
     253           rtu1741           rtu1741              null       toportu1741           fld1741  
     254           rtu1742           rtu1742              null       toportu1742           fld1742  
     255           rtu1751           rtu1751              null       toportu1751           fld1751  
     256           rtu1752           rtu1752              null       toportu1752           fld1752  
     257           rtu1761           rtu1761              null       toportu1761           fld1761  
     258           rtu1762           rtu1762              null       toportu1762           fld1762  
     259           rtu1771           rtu1771              null       toportu1771           fld1771  
     260           rtu1772           rtu1772              null       toportu1772           fld1772  
     261           rtu1781           rtu1781              null       toportu1781           fld1781  
     262           rtu1782           rtu1782              null       toportu1782           fld1782  
     263           rtu1801           rtu1801              null       toportu1801           fld1801  
     264           rtu1802           rtu1802              null       toportu1802           fld1802  
     265           rtu1811           rtu1811              null       toportu1811           fld1811  
     266           rtu1812           rtu1812              null       toportu1812           fld1812  
     267           rtu1821           rtu1821              null       toportu1821           fld1821  
     268           rtu1822           rtu1822              null       toportu1822           fld1822  
     269           rtu1831           rtu1831              null       toportu1831           fld1831  
     270           rtu1832           rtu1832              null       toportu1832           fld1832  
     271           rtu1841           rtu1841              null       toportu1841           fld1841  
     272           rtu1842           rtu1842              null       toportu1842           fld1842  
     273           rtu1851           rtu1851              null       toportu1851           fld1851  
     274           rtu1852           rtu1852              null       toportu1852           fld1852  
     275           rtu1861           rtu1861              null       toportu1861           fld1861  
     276           rtu1862           rtu1862              null       toportu1862           fld1862  
     277           rtu1871           rtu1871              null       toportu1871           fld1871  
     278           rtu1872           rtu1872              null       toportu1872           fld1872  
     279           rtu1881           rtu1881              null       toportu1881           fld1881  
     280           rtu1882           rtu1882              null       toportu1882           fld1882  
     281           rtu1891           rtu1891              null       toportu1891           fld1891  
     282           rtu1892           rtu1892              null       toportu1892           fld1892  
     283           rtu1901           rtu1901              null       toportu1901           fld1901  
     284           rtu1902           rtu1902              null       toportu1902           fld1902  
     285           rtu1911           rtu1911              null       toportu1911           fld1911  
     286           rtu1912           rtu1912              null       toportu1912           fld1912  
     287           rtu1921           rtu1921              null       toportu1921           fld1921  
     288           rtu1922           rtu1922              null       toportu1922           fld1922  
     289           rtu1951           rtu1951              null       toportu1951           fld1951  
     290           rtu1952           rtu1952              null       toportu1952           fld1952  
     291           rtu1961           rtu1961              null       toportu1961           fld1961  
     292           rtu1962           rtu1962              null       toportu1962           fld1962  