rout_unit.ele: written by SWAT+ editor v2.3.1 on 2023-08-15 15:10 for SWAT+ rev.60.5.7
      id  name                   obj_typ    obj_id          frac               dlr  
       1  hru0001                    hru         1     2.5490E-1                 0  
       2  hru0002                    hru         2     3.0719E-1                 0  
       3  hru0003                    hru         3     2.8105E-1                 0  
       4  hru0004                    hru         4     1.5686E-1                 0  
       5  hru0005                    hru         5     3.3333E-1                 0  
       6  hru0006                    hru         6     4.1667E-1                 0  
       7  hru0007                    hru         7     2.5000E-1                 0  
       8  hru0008                    hru         8     4.2045E-1                 0  
       9  hru0009                    hru         9     1.5909E-1                 0  
      10  hru0010                    hru        10     1.7045E-1                 0  
      11  hru0011                    hru        11     1.3636E-1                 0  
      12  hru0012                    hru        12     1.1364E-1                 0  
      13  hru0013                    hru        13     3.3333E-1                 0  
      14  hru0014                    hru        14     3.3333E-1                 0  
      15  hru0015                    hru        15     1.1111E-1                 0  
      16  hru0016                    hru        16     2.2222E-1                 0  
      17  hru0017                    hru        17     1.9444E-1                 0  
      18  hru0018                    hru        18     1.0000E-1                 0  
      19  hru0019                    hru        19     1.9444E-1                 0  
      20  hru0020                    hru        20     1.7778E-1                 0  
      21  hru0021                    hru        21     1.8333E-1                 0  
      22  hru0022                    hru        22     1.5000E-1                 0  
      23  hru0023                    hru        23     1.7778E-1                 0  
      24  hru0024                    hru        24     6.0000E-1                 0  
      25  hru0025                    hru        25     2.2222E-1                 0  
      26  hru0026                    hru        26     5.1724E-1                 0  
      27  hru0027                    hru        27     1.3793E-1                 0  
      28  hru0028                    hru        28     3.4483E-1                 0  
      29  hru0029                    hru        29     3.2353E-1                 0  
      30  hru0030                    hru        30     1.4706E-1                 0  
      31  hru0031                    hru        31     1.1765E-1                 0  
      32  hru0032                    hru        32     1.4706E-1                 0  
      33  hru0033                    hru        33     2.6471E-1                 0  
      34  hru0034                    hru        34     1.4045E-1                 0  
      35  hru0035                    hru        35     3.0899E-1                 0  
      36  hru0036                    hru        36     1.7978E-1                 0  
      37  hru0037                    hru        37     3.7079E-1                 0  
      38  hru0038                    hru        38     5.5789E-1                 0  
      39  hru0039                    hru        39     1.6842E-1                 0  
      40  hru0040                    hru        40     1.6842E-1                 0  
      41  hru0041                    hru        41     1.0526E-1                 0  
      42  hru0042                    hru        42     6.8852E-1                 0  
      43  hru0043                    hru        43     3.1148E-1                 0  
      44  hru0044                    hru        44     8.0000E-1                 0  
      45  hru0045                    hru        45     2.0000E-1                 0  
      46  hru0046                    hru        46     4.1333E-1                 0  
      47  hru0047                    hru        47     1.4000E-1                 0  
      48  hru0048                    hru        48     1.2000E-1                 0  
      49  hru0049                    hru        49     3.2667E-1                 0  
      50  hru0050                    hru        50     1.8056E-1                 0  
      51  hru0051                    hru        51     1.8056E-1                 0  
      52  hru0052                    hru        52     1.1111E-1                 0  
      53  hru0053                    hru        53     1.9444E-1                 0  
      54  hru0054                    hru        54     1.8056E-1                 0  
      55  hru0055                    hru        55     1.5278E-1                 0  
      56  hru0056                    hru        56     2.5000E-1                 0  
      57  hru0057                    hru        57     4.3750E-1                 0  
      58  hru0058                    hru        58     3.1250E-1                 0  
      59  hru0059                    hru        59     6.0714E-1                 0  
      60  hru0060                    hru        60     2.1429E-1                 0  
      61  hru0061                    hru        61     1.7857E-1                 0  
      62  hru0062                    hru        62     2.4096E-1                 0  
      63  hru0063                    hru        63     5.1807E-1                 0  
      64  hru0064                    hru        64     1.3253E-1                 0  
      65  hru0065                    hru        65     1.0843E-1                 0  
      66  hru0066                    hru        66     1.9231E-1                 0  
      67  hru0067                    hru        67     2.6923E-1                 0  
      68  hru0068                    hru        68     3.8462E-1                 0  
      69  hru0069                    hru        69     1.5385E-1                 0  
      70  hru0070                    hru        70     4.2308E-1                 0  
      71  hru0071                    hru        71     1.7949E-1                 0  
      72  hru0072                    hru        72     1.4103E-1                 0  
      73  hru0073                    hru        73     1.0256E-1                 0  
      74  hru0074                    hru        74     1.5385E-1                 0  
      75  hru0075                    hru        75     1.2500E-1                 0  
      76  hru0076                    hru        76     4.3750E-1                 0  
      77  hru0077                    hru        77     3.1250E-1                 0  
      78  hru0078                    hru        78     1.2500E-1                 0  
      79  hru0079                    hru        79     2.8369E-1                 0  
      80  hru0080                    hru        80     4.5390E-1                 0  
      81  hru0081                    hru        81     1.5603E-1                 0  
      82  hru0082                    hru        82     1.0638E-1                 0  
      83  hru0083                    hru        83     5.0704E-1                 0  
      84  hru0084                    hru        84     3.8028E-1                 0  
      85  hru0085                    hru        85     1.1268E-1                 0  
      86  hru0086                    hru        86     1.2500E-1                 0  
      87  hru0087                    hru        87     1.8750E-1                 0  
      88  hru0088                    hru        88     2.1250E-1                 0  
      89  hru0089                    hru        89     2.3750E-1                 0  
      90  hru0090                    hru        90     2.3750E-1                 0  
      91  hru0091                    hru        91     2.3529E-1                 0  
      92  hru0092                    hru        92     1.1765E-1                 0  
      93  hru0093                    hru        93     2.9412E-1                 0  
      94  hru0094                    hru        94     3.5294E-1                 0  
      95  hru0095                    hru        95     1.7915E-1                 0  
      96  hru0096                    hru        96     2.3127E-1                 0  
      97  hru0097                    hru        97     1.7264E-1                 0  
      98  hru0098                    hru        98     2.1498E-1                 0  
      99  hru0099                    hru        99     2.0195E-1                 0  
     100  hru0100                    hru       100     1.8868E-1                 0  
     101  hru0101                    hru       101     3.5849E-1                 0  
     102  hru0102                    hru       102     3.3962E-1                 0  
     103  hru0103                    hru       103     1.1321E-1                 0  
     104  hru0104                    hru       104     1.3393E-1                 0  
     105  hru0105                    hru       105     3.4821E-1                 0  
     106  hru0106                    hru       106     1.1607E-1                 0  
     107  hru0107                    hru       107     2.8571E-1                 0  
     108  hru0108                    hru       108     1.1607E-1                 0  
     109  hru0109                    hru       109     1.0345E-1                 0  
     110  hru0110                    hru       110     2.0690E-1                 0  
     111  hru0111                    hru       111     6.8966E-1                 0  
     112  hru0112                    hru       112     1.0000E-1                 0  
     113  hru0113                    hru       113     1.2500E-1                 0  
     114  hru0114                    hru       114     1.2500E-1                 0  
     115  hru0115                    hru       115     2.7500E-1                 0  
     116  hru0116                    hru       116     1.7500E-1                 0  
     117  hru0117                    hru       117     2.0000E-1                 0  
     118  hru0118                    hru       118     2.2222E-1                 0  
     119  hru0119                    hru       119     2.5926E-1                 0  
     120  hru0120                    hru       120     1.1111E-1                 0  
     121  hru0121                    hru       121     2.9630E-1                 0  
     122  hru0122                    hru       122     1.1111E-1                 0  
     123  hru0123                    hru       123     2.0000E-1                 0  
     124  hru0124                    hru       124     3.0000E-1                 0  
     125  hru0125                    hru       125     3.0000E-1                 0  
     126  hru0126                    hru       126     1.0000E-1                 0  
     127  hru0127                    hru       127     1.0000E-1                 0  
     128  hru0128                    hru       128     2.4675E-1                 0  
     129  hru0129                    hru       129     1.5584E-1                 0  
     130  hru0130                    hru       130     2.2078E-1                 0  
     131  hru0131                    hru       131     3.7662E-1                 0  
     132  hru0132                    hru       132     2.7200E-1                 0  
     133  hru0133                    hru       133     2.0000E-1                 0  
     134  hru0134                    hru       134     2.4800E-1                 0  
     135  hru0135                    hru       135     1.1200E-1                 0  
     136  hru0136                    hru       136     1.6800E-1                 0  
     137  hru0137                    hru       137     1.1111E-1                 0  
     138  hru0138                    hru       138     3.0556E-1                 0  
     139  hru0139                    hru       139     1.9444E-1                 0  
     140  hru0140                    hru       140     1.6667E-1                 0  
     141  hru0141                    hru       141     1.1111E-1                 0  
     142  hru0142                    hru       142     1.1111E-1                 0  
     143  hru0143                    hru       143     5.7944E-1                 0  
     144  hru0144                    hru       144     2.3364E-1                 0  
     145  hru0145                    hru       145     1.8692E-1                 0  
     146  hru0146                    hru       146     5.2632E-1                 0  
     147  hru0147                    hru       147     1.0526E-1                 0  
     148  hru0148                    hru       148     3.6842E-1                 0  
     149  hru0149                    hru       149     4.7191E-1                 0  
     150  hru0150                    hru       150     1.2360E-1                 0  
     151  hru0151                    hru       151     1.7978E-1                 0  
     152  hru0152                    hru       152     1.1236E-1                 0  
     153  hru0153                    hru       153     1.1236E-1                 0  
     154  hru0154                    hru       154     3.9474E-1                 0  
     155  hru0155                    hru       155     3.4211E-1                 0  
     156  hru0156                    hru       156     1.3158E-1                 0  
     157  hru0157                    hru       157     1.3158E-1                 0  
     158  hru0158                    hru       158     5.7778E-1                 0  
     159  hru0159                    hru       159     1.5556E-1                 0  
     160  hru0160                    hru       160     1.3333E-1                 0  
     161  hru0161                    hru       161     1.3333E-1                 0  
     162  hru0162                    hru       162     4.6154E-1                 0  
     163  hru0163                    hru       163     3.3333E-1                 0  
     164  hru0164                    hru       164     1.0256E-1                 0  
     165  hru0165                    hru       165     1.0256E-1                 0  
     166  hru0166                    hru       166     1.4474E-1                 0  
     167  hru0167                    hru       167     4.6053E-1                 0  
     168  hru0168                    hru       168     1.8421E-1                 0  
     169  hru0169                    hru       169     1.0526E-1                 0  
     170  hru0170                    hru       170     1.0526E-1                 0  
     171  hru0171                    hru       171     2.7027E-1                 0  
     172  hru0172                    hru       172     4.5946E-1                 0  
     173  hru0173                    hru       173     2.7027E-1                 0  
     174  hru0174                    hru       174     3.6667E-1                 0  
     175  hru0175                    hru       175     1.3333E-1                 0  
     176  hru0176                    hru       176     2.5000E-1                 0  
     177  hru0177                    hru       177     1.1667E-1                 0  
     178  hru0178                    hru       178     1.3333E-1                 0  
     179  hru0179                    hru       179     5.4271E-1                 0  
     180  hru0180                    hru       180     2.8643E-1                 0  
     181  hru0181                    hru       181     1.7085E-1                 0  
     182  hru0182                    hru       182     2.0961E-1                 0  
     183  hru0183                    hru       183     1.6594E-1                 0  
     184  hru0184                    hru       184     3.9301E-1                 0  
     185  hru0185                    hru       185     2.3144E-1                 0  
     186  hru0186                    hru       186     1.7308E-1                 0  
     187  hru0187                    hru       187     2.5000E-1                 0  
     188  hru0188                    hru       188     1.7308E-1                 0  
     189  hru0189                    hru       189     2.5000E-1                 0  
     190  hru0190                    hru       190     1.5385E-1                 0  
     191  hru0191                    hru       191     1.4925E-1                 0  
     192  hru0192                    hru       192     1.1940E-1                 0  
     193  hru0193                    hru       193     1.4925E-1                 0  
     194  hru0194                    hru       194     1.6418E-1                 0  
     195  hru0195                    hru       195     1.3433E-1                 0  
     196  hru0196                    hru       196     1.7910E-1                 0  
     197  hru0197                    hru       197     1.0448E-1                 0  
     198  hru0198                    hru       198     1.7094E-1                 0  
     199  hru0199                    hru       199     1.1111E-1                 0  
     200  hru0200                    hru       200     3.4188E-1                 0  
     201  hru0201                    hru       201     2.3932E-1                 0  
     202  hru0202                    hru       202     1.3675E-1                 0  
     203  hru0203                    hru       203     1.0345E-1                 0  
     204  hru0204                    hru       204     4.9425E-1                 0  
     205  hru0205                    hru       205     1.4943E-1                 0  
     206  hru0206                    hru       206     1.4943E-1                 0  
     207  hru0207                    hru       207     1.0345E-1                 0  
     208  hru0208                    hru       208     4.4706E-1                 0  
     209  hru0209                    hru       209     5.5294E-1                 0  
     210  hru0210                    hru       210     3.6082E-1                 0  
     211  hru0211                    hru       211     1.2371E-1                 0  
     212  hru0212                    hru       212     1.5464E-1                 0  
     213  hru0213                    hru       213     1.0309E-1                 0  
     214  hru0214                    hru       214     1.0309E-1                 0  
     215  hru0215                    hru       215     1.5464E-1                 0  
     216  hru0216                    hru       216     1.6129E-1                 0  
     217  hru0217                    hru       217     2.2581E-1                 0  
     218  hru0218                    hru       218     4.1935E-1                 0  
     219  hru0219                    hru       219     1.9355E-1                 0  
     220  hru0220                    hru       220     2.2619E-1                 0  
     221  hru0221                    hru       221     4.7619E-1                 0  
     222  hru0222                    hru       222     1.7063E-1                 0  
     223  hru0223                    hru       223     1.2698E-1                 0  
     224  hru0224                    hru       224     4.8062E-1                 0  
     225  hru0225                    hru       225     1.7054E-1                 0  
     226  hru0226                    hru       226     3.4884E-1                 0  
     227  hru0227                    hru       227     2.5000E-1                 0  
     228  hru0228                    hru       228     4.5122E-1                 0  
     229  hru0229                    hru       229     1.8293E-1                 0  
     230  hru0230                    hru       230     1.1585E-1                 0  
     231  hru0231                    hru       231     4.0541E-1                 0  
     232  hru0232                    hru       232     1.3514E-1                 0  
     233  hru0233                    hru       233     1.7568E-1                 0  
     234  hru0234                    hru       234     1.2162E-1                 0  
     235  hru0235                    hru       235     1.6216E-1                 0  
     236  hru0236                    hru       236     6.7308E-1                 0  
     237  hru0237                    hru       237     2.1154E-1                 0  
     238  hru0238                    hru       238     1.1538E-1                 0  
     239  hru0239                    hru       239     1.5306E-1                 0  
     240  hru0240                    hru       240     1.3776E-1                 0  
     241  hru0241                    hru       241     1.2755E-1                 0  
     242  hru0242                    hru       242     1.3265E-1                 0  
     243  hru0243                    hru       243     3.3163E-1                 0  
     244  hru0244                    hru       244     1.1735E-1                 0  
     245  hru0245                    hru       245     3.7302E-1                 0  
     246  hru0246                    hru       246     1.3492E-1                 0  
     247  hru0247                    hru       247     2.6984E-1                 0  
     248  hru0248                    hru       248     2.2222E-1                 0  
     249  hru0249                    hru       249     1.3016E-1                 0  
     250  hru0250                    hru       250     2.3492E-1                 0  
     251  hru0251                    hru       251     2.6032E-1                 0  
     252  hru0252                    hru       252     1.3016E-1                 0  
     253  hru0253                    hru       253     2.4444E-1                 0  
     254  hru0254                    hru       254     1.6071E-1                 0  
     255  hru0255                    hru       255     2.6190E-1                 0  
     256  hru0256                    hru       256     1.7262E-1                 0  
     257  hru0257                    hru       257     1.7262E-1                 0  
     258  hru0258                    hru       258     1.0714E-1                 0  
     259  hru0259                    hru       259     1.2500E-1                 0  
     260  hru0260                    hru       260     3.5714E-1                 0  
     261  hru0261                    hru       261     6.4286E-1                 0  
     262  hru0262                    hru       262     2.4324E-1                 0  
     263  hru0263                    hru       263     1.2162E-1                 0  
     264  hru0264                    hru       264     2.8378E-1                 0  
     265  hru0265                    hru       265     1.2162E-1                 0  
     266  hru0266                    hru       266     1.2162E-1                 0  
     267  hru0267                    hru       267     1.0811E-1                 0  
     268  hru0268                    hru       268     3.7864E-1                 0  
     269  hru0269                    hru       269     2.5243E-1                 0  
     270  hru0270                    hru       270     2.1359E-1                 0  
     271  hru0271                    hru       271     1.5534E-1                 0  
     272  hru0272                    hru       272     3.8889E-1                 0  
     273  hru0273                    hru       273     4.6528E-1                 0  
     274  hru0274                    hru       274     1.4583E-1                 0  
     275  hru0275                    hru       275     2.0000E-1                 0  
     276  hru0276                    hru       276     4.7500E-1                 0  
     277  hru0277                    hru       277     2.0000E-1                 0  
     278  hru0278                    hru       278     1.2500E-1                 0  
     279  hru0279                    hru       279     1.5789E-1                 0  
     280  hru0280                    hru       280     1.2281E-1                 0  
     281  hru0281                    hru       281     2.1053E-1                 0  
     282  hru0282                    hru       282     1.5789E-1                 0  
     283  hru0283                    hru       283     1.9298E-1                 0  
     284  hru0284                    hru       284     1.5789E-1                 0  
     285  hru0285                    hru       285     3.9850E-1                 0  
     286  hru0286                    hru       286     3.6842E-1                 0  
     287  hru0287                    hru       287     2.3308E-1                 0  
     288  hru0288                    hru       288     2.5600E-1                 0  
     289  hru0289                    hru       289     2.4800E-1                 0  
     290  hru0290                    hru       290     2.8000E-1                 0  
     291  hru0291                    hru       291     1.1200E-1                 0  
     292  hru0292                    hru       292     1.0400E-1                 0  
     293  hru0293                    hru       293     4.4681E-1                 0  
     294  hru0294                    hru       294     3.5461E-1                 0  
     295  hru0295                    hru       295     1.9858E-1                 0  
     296  hru0296                    hru       296     2.6374E-1                 0  
     297  hru0297                    hru       297     1.2088E-1                 0  
     298  hru0298                    hru       298     4.3956E-1                 0  
     299  hru0299                    hru       299     1.7582E-1                 0  
     300  hru0300                    hru       300     1.5789E-1                 0  
     301  hru0301                    hru       301     1.5789E-1                 0  
     302  hru0302                    hru       302     4.2763E-1                 0  
     303  hru0303                    hru       303     2.5658E-1                 0  
     304  hru0304                    hru       304     3.8542E-1                 0  
     305  hru0305                    hru       305     1.5625E-1                 0  
     306  hru0306                    hru       306     1.0417E-1                 0  
     307  hru0307                    hru       307     1.0417E-1                 0  
     308  hru0308                    hru       308     1.3542E-1                 0  
     309  hru0309                    hru       309     1.1458E-1                 0  
     310  hru0310                    hru       310     4.6309E-1                 0  
     311  hru0311                    hru       311     5.3691E-1                 0  
     312  hru0312                    hru       312     1.5152E-1                 0  
     313  hru0313                    hru       313     1.6162E-1                 0  
     314  hru0314                    hru       314     2.2222E-1                 0  
     315  hru0315                    hru       315     2.6263E-1                 0  
     316  hru0316                    hru       316     2.0202E-1                 0  
     317  hru0317                    hru       317     5.5556E-1                 0  
     318  hru0318                    hru       318     1.1111E-1                 0  
     319  hru0319                    hru       319     3.3333E-1                 0  
     320  hru0320                    hru       320     2.5000E-1                 0  
     321  hru0321                    hru       321     1.1111E-1                 0  
     322  hru0322                    hru       322     1.9444E-1                 0  
     323  hru0323                    hru       323     4.4444E-1                 0  
     324  hru0324                    hru       324     4.8276E-1                 0  
     325  hru0325                    hru       325     2.4138E-1                 0  
     326  hru0326                    hru       326     2.7586E-1                 0  
     327  hru0327                    hru       327     3.3987E-1                 0  
     328  hru0328                    hru       328     3.9869E-1                 0  
     329  hru0329                    hru       329     1.5033E-1                 0  
     330  hru0330                    hru       330     1.1111E-1                 0  
     331  hru0331                    hru       331     1.7241E-1                 0  
     332  hru0332                    hru       332     4.8276E-1                 0  
     333  hru0333                    hru       333     3.4483E-1                 0  
     334  hru0334                    hru       334     4.5000E-1                 0  
     335  hru0335                    hru       335     2.1250E-1                 0  
     336  hru0336                    hru       336     3.3750E-1                 0  
     337  hru0337                    hru       337     4.3678E-1                 0  
     338  hru0338                    hru       338     1.3793E-1                 0  
     339  hru0339                    hru       339     1.3793E-1                 0  
     340  hru0340                    hru       340     1.3793E-1                 0  
     341  hru0341                    hru       341     1.4943E-1                 0  
     342  hru0342                    hru       342     1.4000E-1                 0  
     343  hru0343                    hru       343     4.6667E-1                 0  
     344  hru0344                    hru       344     3.9333E-1                 0  
     345  hru0345                    hru       345     1.2012E-1                 0  
     346  hru0346                    hru       346     1.6216E-1                 0  