soil_plant.ini: written by SWAT+ editor v2.3.1 on 2023-08-15 15:10 for SWAT+ rev.60.5.7
name                   sw_frac         nutrients              pest              path              hmet              salt  
soilplant1             0.00000          soilnut1              low_ini              low_ini              low_ini              low_ini  
