soils.sol: written by SWAT+ editor v2.3.1 on 2023-08-15 15:10 for SWAT+ rev.60.5.7
name                            nly           hyd_grp        dp_tot    anion_excl      perc_crk  texture                              dp            bd           awc        soil_k        carbon          clay          silt          sand          rock           alb        usle_k            ec         caco3            ph  
PAd                               4                 C     500.00000       0.50000       0.50000  CL                         
                                                                                                                               250.00000       1.50800       0.12700       6.93800       2.23000      28.50000      33.07000      38.43000      10.64000       0.12900       0.12600       1.00000       0.00000       0.00000  
                                                                                                                               350.00000       1.69600       0.10100       3.33300       1.30000      33.50000      25.29000      41.21000      38.86000       0.24500       0.13200       0.00000       0.00000       0.00000  
                                                                                                                               450.00000       1.49900       0.11700       1.00200       1.10000      46.00000      25.29000      28.71000      18.53000       0.28200       0.13300       0.00000       0.00000       0.00000  
                                                                                                                               500.00000       1.45300       0.13800       2.42200       0.85000      36.00000      36.03000      27.97000       0.98000       0.33400       0.15700       0.00000       0.00000       0.00000  
PAe                               7                 C    1200.00000       0.50000       0.50000  SL                         
                                                                                                                               210.00000       1.59400       0.07800      51.13000       0.54000       8.60000      20.90000      70.50000       1.00000       0.41400       0.16800       1.00000       0.00000       0.00000  
                                                                                                                               490.00000       1.62300       0.08900      33.86000       0.33000      11.20000      25.10000      63.70000       1.80000       0.47800       0.17500       0.00000       0.00000       0.00000  
                                                                                                                               560.00000       1.64000       0.09300      27.77400       0.23000      12.40000      27.10000      60.50000       3.20000       0.51200       0.17700       0.00000       0.00000       0.00000  
                                                                                                                               640.00000       1.62800       0.09800      23.58600       0.21000      13.60000      28.10000      58.30000       1.10000       0.51900       0.17600       0.00000       0.00000       0.00000  
                                                                                                                               760.00000       1.55000       0.11500       3.06200       0.30000      32.30000      22.10000      45.60000       0.70000       0.48800       0.15200       0.00000       0.00000       0.00000  
                                                                                                                              1000.00000       1.53500       0.11800       2.32000       0.25000      34.50000      22.20000      43.30000       0.80000       0.50500       0.15100       0.00000       0.00000       0.00000  
                                                                                                                              1200.00000       1.58900       0.11200       4.79100       0.12000      28.00000      24.40000      47.60000       1.90000       0.55300       0.15900       0.00000       0.00000       0.00000  
PBACd                             5                 D    1200.00000       0.50000       0.50000  L                          
                                                                                                                               200.00000       1.38500       0.14200      11.15300       3.20000      25.80000      36.10000      38.00000       0.10000       0.06600       0.12800       1.00000       0.00000       0.00000  
                                                                                                                               380.00000       1.42100       0.13900       9.17200       2.60000      26.40000      35.60000      38.00000       0.10000       0.10000       0.12800       0.00000       0.00000       0.00000  
                                                                                                                               570.00000       1.55900       0.12800       9.76600       0.90000      21.20000      36.60000      42.20000       2.30000       0.32300       0.16400       0.00000       0.00000       0.00000  
                                                                                                                               800.00000       1.49200       0.12400       1.79000       0.80000      38.20000      25.30000      36.50000       3.70000       0.34600       0.14600       0.00000       0.00000       0.00000  
                                                                                                                              1200.00000       1.65700       0.08500      24.58800       0.00000      14.30000      22.10000      63.60000       3.70000       0.00000       0.17000       0.00000       0.00000       0.00000  
PAa                               5                 C     900.00000       0.50000       0.50000  SCL                        
                                                                                                                               250.00000       1.72400       0.08000      14.87700       1.25000      21.00000      17.68000      61.32000      28.90000       0.25400       0.13500       1.00000       0.00000       0.00000  
                                                                                                                               390.00000       1.54400       0.11000       1.51700       0.84000      38.50000      14.70000      46.80000       6.19000       0.33700       0.12900       0.00000       0.00000       0.00000  
                                                                                                                               590.00000       1.42000       0.12000       0.26700       0.62000      49.75000      11.40000      38.85000       0.25000       0.39200       0.11800       0.00000       0.00000       0.00000  
                                                                                                                               800.00000       1.51400       0.11300       1.13400       0.33000      39.75000      12.90000      47.35000       0.00000       0.47800       0.13000       0.00000       0.00000       0.00000  
                                                                                                                               900.00000       1.58400       0.09700       3.37000       0.22000      32.25000       9.68000      58.07000       0.10000       0.51600       0.12800       0.00000       0.00000       0.00000  
PVd                               7                 B    1650.00000       0.50000       0.50000  L                          
                                                                                                                               250.00000       1.52300       0.13000      16.11300       1.50000      17.40000      38.20000      44.40000       1.30000       0.21400       0.14500       1.00000       0.00000       0.00000  
                                                                                                                               450.00000       1.62200       0.09700      19.12900       0.80000      16.90000      25.50000      57.60000       6.70000       0.34600       0.16400       0.00000       0.00000       0.00000  
                                                                                                                               560.00000       1.61300       0.10900       6.63600       0.70000      26.10000      25.80000      48.10000       9.30000       0.37100       0.15700       0.00000       0.00000       0.00000  
                                                                                                                               750.00000       1.40600       0.12300       0.56100       0.70000      48.90000      20.20000      30.90000       3.00000       0.37100       0.13500       0.00000       0.00000       0.00000  
                                                                                                                              1000.00000       1.42600       0.12300       0.65800       0.50000      48.10000      22.90000      29.00000       6.20000       0.42500       0.14100       0.00000       0.00000       0.00000  
                                                                                                                              1300.00000       1.35000       0.11100       0.30700       0.20000      61.40000      17.60000      21.00000      17.70000       0.52300       0.13000       0.00000       0.00000       0.00000  
                                                                                                                              1650.00000       1.21100       0.11800       0.42900       0.10000      63.00000      19.60000      17.40000       0.00000       0.56000       0.13500       0.00000       0.00000       0.00000  
