sweep.ops: written by SWAT+ editor v2.3.1 on 2023-08-15 15:10 for SWAT+ rev.60.5.7
name                   swp_eff     frac_curb  description
high_eff               0.80000       0.90000  
