time.sim: written by SWAT+ editor v2.3.1 on 2023-08-15 15:10 for SWAT+ rev.60.5.7
day_start  yrc_start   day_end   yrc_end      step  
       0      1990         0      1994         0  
