topography.hyd: written by SWAT+ editor v2.3.1 on 2023-08-15 15:10 for SWAT+ rev.60.5.7
name                       slp       slp_len       lat_len      dist_cha         depos  
topohru0001            0.14034      10.00000      10.00000     121.00000       0.00000  
topohru0002            0.13101      10.00000      10.00000     121.00000       0.00000  
topohru0003            0.05761      30.00000      30.00000     121.00000       0.00000  
topohru0004            0.05203      30.00000      30.00000     121.00000       0.00000  
topohru0005            0.06155      30.00000      30.00000     121.00000       0.00000  
topohru0006            0.11828      10.00000      10.00000     121.00000       0.00000  
topohru0007            0.13140      10.00000      10.00000     121.00000       0.00000  
topohru0008            0.05784      30.00000      30.00000     121.00000       0.00000  
topohru0009            0.11918      10.00000      10.00000     121.00000       0.00000  
topohru0010            0.06159      30.00000      30.00000     121.00000       0.00000  
topohru0011            0.11536      10.00000      10.00000     121.00000       0.00000  
topohru0012            0.12281      10.00000      10.00000     121.00000       0.00000  
topohru0013            0.10482      10.00000      10.00000     121.00000       0.00000  
topohru0014            0.05690      30.00000      30.00000     121.00000       0.00000  
topohru0015            0.02357      90.00000      90.00000     121.00000       0.00000  
topohru0016            0.06667      30.00000      30.00000     121.00000       0.00000  
topohru0017            0.14815      10.00000      10.00000     121.00000       0.00000  
topohru0018            0.06811      30.00000      30.00000     121.00000       0.00000  
topohru0019            0.11975      10.00000      10.00000     121.00000       0.00000  
topohru0020            0.06573      30.00000      30.00000     121.00000       0.00000  
topohru0021            0.11700      10.00000      10.00000     121.00000       0.00000  
topohru0022            0.06200      30.00000      30.00000     121.00000       0.00000  
topohru0023            0.06081      30.00000      30.00000     121.00000       0.00000  
topohru0024            0.05329      30.00000      30.00000     121.00000       0.00000  
topohru0025            0.11151      10.00000      10.00000     121.00000       0.00000  
topohru0026            0.15238      10.00000      10.00000     121.00000       0.00000  
topohru0027            0.20724      10.00000      10.00000     121.00000       0.00000  
topohru0028            0.13344      10.00000      10.00000     121.00000       0.00000  
topohru0029            0.14100      10.00000      10.00000     121.00000       0.00000  
topohru0030            0.04771      60.00000      60.00000     121.00000       0.00000  
topohru0031            0.05653      30.00000      30.00000     121.00000       0.00000  
topohru0032            0.09887      10.00000      10.00000     121.00000       0.00000  
topohru0033            0.00018     121.00000     121.00000     121.00000       0.00000  
topohru0034            0.06229      30.00000      30.00000     121.00000       0.00000  
topohru0035            0.14432      10.00000      10.00000     121.00000       0.00000  
topohru0036            0.12967      10.00000      10.00000     121.00000       0.00000  
topohru0037            0.14258      10.00000      10.00000     121.00000       0.00000  
topohru0038            0.14230      10.00000      10.00000     121.00000       0.00000  
topohru0039            0.05001      30.00000      30.00000     121.00000       0.00000  
topohru0040            0.25515      10.00000      10.00000     121.00000       0.00000  
topohru0041            0.05030      30.00000      30.00000     121.00000       0.00000  
topohru0042            0.14073      10.00000      10.00000     121.00000       0.00000  
topohru0043            0.05870      30.00000      30.00000     121.00000       0.00000  
topohru0044            0.05438      30.00000      30.00000     121.00000       0.00000  
topohru0045            0.09857      10.00000      10.00000     121.00000       0.00000  
topohru0046            0.14428      10.00000      10.00000     121.00000       0.00000  
topohru0047            0.24223      10.00000      10.00000     121.00000       0.00000  
topohru0048            0.16245      10.00000      10.00000     121.00000       0.00000  
topohru0049            0.26430      10.00000      10.00000     121.00000       0.00000  
topohru0050            0.05126      30.00000      30.00000     121.00000       0.00000  
topohru0051            0.00199     121.00000     121.00000     121.00000       0.00000  
topohru0052            0.10802      10.00000      10.00000     121.00000       0.00000  
topohru0053            0.05770      30.00000      30.00000     121.00000       0.00000  
topohru0054            0.00198     121.00000     121.00000     121.00000       0.00000  
topohru0055            0.10798      10.00000      10.00000     121.00000       0.00000  
topohru0056            0.05309      30.00000      30.00000     121.00000       0.00000  
topohru0057            0.00018     121.00000     121.00000     121.00000       0.00000  
topohru0058            0.09634      10.00000      10.00000     121.00000       0.00000  
topohru0059            0.12835      10.00000      10.00000     121.00000       0.00000  
topohru0060            0.22570      10.00000      10.00000     121.00000       0.00000  
topohru0061            0.16798      10.00000      10.00000     121.00000       0.00000  
topohru0062            0.06660      30.00000      30.00000     121.00000       0.00000  
topohru0063            0.12731      10.00000      10.00000     121.00000       0.00000  
topohru0064            0.05870      30.00000      30.00000     121.00000       0.00000  
topohru0065            0.10094      10.00000      10.00000     121.00000       0.00000  
topohru0066            0.11235      10.00000      10.00000     121.00000       0.00000  
topohru0067            0.04453      60.00000      60.00000     121.00000       0.00000  
topohru0068            0.00018     121.00000     121.00000     121.00000       0.00000  
topohru0069            0.10110      10.00000      10.00000     121.00000       0.00000  
topohru0070            0.04953      60.00000      60.00000     121.00000       0.00000  
topohru0071            0.12788      10.00000      10.00000     121.00000       0.00000  
topohru0072            0.05779      30.00000      30.00000     121.00000       0.00000  
topohru0073            0.10800      10.00000      10.00000     121.00000       0.00000  
topohru0074            0.11697      10.00000      10.00000     121.00000       0.00000  
topohru0075            0.04937      60.00000      60.00000     121.00000       0.00000  
topohru0076            0.00019     121.00000     121.00000     121.00000       0.00000  
topohru0077            0.05753      30.00000      30.00000     121.00000       0.00000  
topohru0078            0.04954      60.00000      60.00000     121.00000       0.00000  
topohru0079            0.11972      10.00000      10.00000     121.00000       0.00000  
topohru0080            0.13012      10.00000      10.00000     121.00000       0.00000  
topohru0081            0.06374      30.00000      30.00000     121.00000       0.00000  
topohru0082            0.10955      10.00000      10.00000     121.00000       0.00000  
topohru0083            0.12709      10.00000      10.00000     121.00000       0.00000  
topohru0084            0.05990      30.00000      30.00000     121.00000       0.00000  
topohru0085            0.21605      10.00000      10.00000     121.00000       0.00000  
topohru0086            0.06141      30.00000      30.00000     121.00000       0.00000  
topohru0087            0.10868      10.00000      10.00000     121.00000       0.00000  
topohru0088            0.12315      10.00000      10.00000     121.00000       0.00000  
topohru0089            0.13159      10.00000      10.00000     121.00000       0.00000  
topohru0090            0.22989      10.00000      10.00000     121.00000       0.00000  
topohru0091            0.12084      10.00000      10.00000     121.00000       0.00000  
topohru0092            0.20207      10.00000      10.00000     121.00000       0.00000  
topohru0093            0.04658      60.00000      60.00000     121.00000       0.00000  
topohru0094            0.00401     121.00000     121.00000     121.00000       0.00000  
topohru0095            0.11784      10.00000      10.00000     121.00000       0.00000  
topohru0096            0.06286      30.00000      30.00000     121.00000       0.00000  
topohru0097            0.06172      30.00000      30.00000     121.00000       0.00000  
topohru0098            0.11382      10.00000      10.00000     121.00000       0.00000  
topohru0099            0.13586      10.00000      10.00000     121.00000       0.00000  
topohru0100            0.12873      10.00000      10.00000     121.00000       0.00000  
topohru0101            0.11533      10.00000      10.00000     121.00000       0.00000  
topohru0102            0.05954      30.00000      30.00000     121.00000       0.00000  
topohru0103            0.00406     121.00000     121.00000     121.00000       0.00000  
topohru0104            0.11966      10.00000      10.00000     121.00000       0.00000  
topohru0105            0.12121      10.00000      10.00000     121.00000       0.00000  
topohru0106            0.05540      30.00000      30.00000     121.00000       0.00000  
topohru0107            0.13277      10.00000      10.00000     121.00000       0.00000  
topohru0108            0.11665      10.00000      10.00000     121.00000       0.00000  
topohru0109            0.00018     121.00000     121.00000     121.00000       0.00000  
topohru0110            0.15101      10.00000      10.00000     121.00000       0.00000  
topohru0111            0.15686      10.00000      10.00000     121.00000       0.00000  
topohru0112            0.15596      10.00000      10.00000     121.00000       0.00000  
topohru0113            0.22864      10.00000      10.00000     121.00000       0.00000  
topohru0114            0.26793      10.00000      10.00000     121.00000       0.00000  
topohru0115            0.13629      10.00000      10.00000     121.00000       0.00000  
topohru0116            0.05017      30.00000      30.00000     121.00000       0.00000  
topohru0117            0.14988      10.00000      10.00000     121.00000       0.00000  
topohru0118            0.05854      30.00000      30.00000     121.00000       0.00000  
topohru0119            0.13011      10.00000      10.00000     121.00000       0.00000  
topohru0120            0.10156      10.00000      10.00000     121.00000       0.00000  
topohru0121            0.05978      30.00000      30.00000     121.00000       0.00000  
topohru0122            0.13928      10.00000      10.00000     121.00000       0.00000  
topohru0123            0.01188      90.00000      90.00000     121.00000       0.00000  
topohru0124            0.11251      10.00000      10.00000     121.00000       0.00000  
topohru0125            0.03794      60.00000      60.00000     121.00000       0.00000  
topohru0126            0.00025     121.00000     121.00000     121.00000       0.00000  
topohru0127            0.10000      10.00000      10.00000     121.00000       0.00000  
topohru0128            0.11615      10.00000      10.00000     121.00000       0.00000  
topohru0129            0.06390      30.00000      30.00000     121.00000       0.00000  
topohru0130            0.05190      30.00000      30.00000     121.00000       0.00000  
topohru0131            0.11452      10.00000      10.00000     121.00000       0.00000  
topohru0132            0.05850      30.00000      30.00000     121.00000       0.00000  
topohru0133            0.11350      10.00000      10.00000     121.00000       0.00000  
topohru0134            0.11692      10.00000      10.00000     121.00000       0.00000  
topohru0135            0.11861      10.00000      10.00000     121.00000       0.00000  
topohru0136            0.06232      30.00000      30.00000     121.00000       0.00000  
topohru0137            0.06221      30.00000      30.00000     121.00000       0.00000  
topohru0138            0.05418      30.00000      30.00000     121.00000       0.00000  
topohru0139            0.00019     121.00000     121.00000     121.00000       0.00000  
topohru0140            0.06452      30.00000      30.00000     121.00000       0.00000  
topohru0141            0.00018     121.00000     121.00000     121.00000       0.00000  
topohru0142            0.04512      60.00000      60.00000     121.00000       0.00000  
topohru0143            0.06269      30.00000      30.00000     121.00000       0.00000  
topohru0144            0.10323      10.00000      10.00000     121.00000       0.00000  
topohru0145            0.05608      30.00000      30.00000     121.00000       0.00000  
topohru0146            0.00252     121.00000     121.00000     121.00000       0.00000  
topohru0147            0.04865      60.00000      60.00000     121.00000       0.00000  
topohru0148            0.00019     121.00000     121.00000     121.00000       0.00000  
topohru0149            0.06073      30.00000      30.00000     121.00000       0.00000  
topohru0150            0.00445     121.00000     121.00000     121.00000       0.00000  
topohru0151            0.11000      10.00000      10.00000     121.00000       0.00000  
topohru0152            0.06251      30.00000      30.00000     121.00000       0.00000  
topohru0153            0.05895      30.00000      30.00000     121.00000       0.00000  
topohru0154            0.11993      10.00000      10.00000     121.00000       0.00000  
topohru0155            0.05991      30.00000      30.00000     121.00000       0.00000  
topohru0156            0.06276      30.00000      30.00000     121.00000       0.00000  
topohru0157            0.05491      30.00000      30.00000     121.00000       0.00000  
topohru0158            0.05739      30.00000      30.00000     121.00000       0.00000  
topohru0159            0.13934      10.00000      10.00000     121.00000       0.00000  
topohru0160            0.12936      10.00000      10.00000     121.00000       0.00000  
topohru0161            0.11795      10.00000      10.00000     121.00000       0.00000  
topohru0162            0.05511      30.00000      30.00000     121.00000       0.00000  
topohru0163            0.11584      10.00000      10.00000     121.00000       0.00000  
topohru0164            0.04709      60.00000      60.00000     121.00000       0.00000  
topohru0165            0.12298      10.00000      10.00000     121.00000       0.00000  
topohru0166            0.12732      10.00000      10.00000     121.00000       0.00000  
topohru0167            0.12360      10.00000      10.00000     121.00000       0.00000  
topohru0168            0.13070      10.00000      10.00000     121.00000       0.00000  
topohru0169            0.24050      10.00000      10.00000     121.00000       0.00000  
topohru0170            0.14323      10.00000      10.00000     121.00000       0.00000  
topohru0171            0.05446      30.00000      30.00000     121.00000       0.00000  
topohru0172            0.05570      30.00000      30.00000     121.00000       0.00000  
topohru0173            0.04144      60.00000      60.00000     121.00000       0.00000  
topohru0174            0.05798      30.00000      30.00000     121.00000       0.00000  
topohru0175            0.11201      10.00000      10.00000     121.00000       0.00000  
topohru0176            0.06251      30.00000      30.00000     121.00000       0.00000  
topohru0177            0.10896      10.00000      10.00000     121.00000       0.00000  
topohru0178            0.00310     121.00000     121.00000     121.00000       0.00000  
topohru0179            0.05923      30.00000      30.00000     121.00000       0.00000  
topohru0180            0.11354      10.00000      10.00000     121.00000       0.00000  
topohru0181            0.12052      10.00000      10.00000     121.00000       0.00000  
topohru0182            0.06089      30.00000      30.00000     121.00000       0.00000  
topohru0183            0.10929      10.00000      10.00000     121.00000       0.00000  
topohru0184            0.06108      30.00000      30.00000     121.00000       0.00000  
topohru0185            0.11284      10.00000      10.00000     121.00000       0.00000  
topohru0186            0.10301      10.00000      10.00000     121.00000       0.00000  
topohru0187            0.04586      60.00000      60.00000     121.00000       0.00000  
topohru0188            0.04924      60.00000      60.00000     121.00000       0.00000  
topohru0189            0.10418      10.00000      10.00000     121.00000       0.00000  
topohru0190            0.05568      30.00000      30.00000     121.00000       0.00000  
topohru0191            0.05142      30.00000      30.00000     121.00000       0.00000  
topohru0192            0.12147      10.00000      10.00000     121.00000       0.00000  
topohru0193            0.06745      30.00000      30.00000     121.00000       0.00000  
topohru0194            0.05848      30.00000      30.00000     121.00000       0.00000  
topohru0195            0.11628      10.00000      10.00000     121.00000       0.00000  
topohru0196            0.06146      30.00000      30.00000     121.00000       0.00000  
topohru0197            0.14728      10.00000      10.00000     121.00000       0.00000  
topohru0198            0.05551      30.00000      30.00000     121.00000       0.00000  
topohru0199            0.10524      10.00000      10.00000     121.00000       0.00000  
topohru0200            0.05645      30.00000      30.00000     121.00000       0.00000  
topohru0201            0.12990      10.00000      10.00000     121.00000       0.00000  
topohru0202            0.06031      30.00000      30.00000     121.00000       0.00000  
topohru0203            0.00537     121.00000     121.00000     121.00000       0.00000  
topohru0204            0.05438      30.00000      30.00000     121.00000       0.00000  
topohru0205            0.10514      10.00000      10.00000     121.00000       0.00000  
topohru0206            0.06070      30.00000      30.00000     121.00000       0.00000  
topohru0207            0.00020     121.00000     121.00000     121.00000       0.00000  
topohru0208            0.11662      10.00000      10.00000     121.00000       0.00000  
topohru0209            0.06025      30.00000      30.00000     121.00000       0.00000  
topohru0210            0.12805      10.00000      10.00000     121.00000       0.00000  
topohru0211            0.05867      30.00000      30.00000     121.00000       0.00000  
topohru0212            0.13117      10.00000      10.00000     121.00000       0.00000  
topohru0213            0.07179      30.00000      30.00000     121.00000       0.00000  
topohru0214            0.05998      30.00000      30.00000     121.00000       0.00000  
topohru0215            0.12560      10.00000      10.00000     121.00000       0.00000  
topohru0216            0.03598      60.00000      60.00000     121.00000       0.00000  
topohru0217            0.05184      30.00000      30.00000     121.00000       0.00000  
topohru0218            0.10325      10.00000      10.00000     121.00000       0.00000  
topohru0219            0.10712      10.00000      10.00000     121.00000       0.00000  
topohru0220            0.12155      10.00000      10.00000     121.00000       0.00000  
topohru0221            0.05453      30.00000      30.00000     121.00000       0.00000  
topohru0222            0.12594      10.00000      10.00000     121.00000       0.00000  
topohru0223            0.06183      30.00000      30.00000     121.00000       0.00000  
topohru0224            0.05644      30.00000      30.00000     121.00000       0.00000  
topohru0225            0.11671      10.00000      10.00000     121.00000       0.00000  
topohru0226            0.05600      30.00000      30.00000     121.00000       0.00000  
topohru0227            0.10769      10.00000      10.00000     121.00000       0.00000  
topohru0228            0.05785      30.00000      30.00000     121.00000       0.00000  
topohru0229            0.06078      30.00000      30.00000     121.00000       0.00000  
topohru0230            0.10513      10.00000      10.00000     121.00000       0.00000  
topohru0231            0.05899      30.00000      30.00000     121.00000       0.00000  
topohru0232            0.00486     121.00000     121.00000     121.00000       0.00000  
topohru0233            0.10298      10.00000      10.00000     121.00000       0.00000  
topohru0234            0.04952      60.00000      60.00000     121.00000       0.00000  
topohru0235            0.05130      30.00000      30.00000     121.00000       0.00000  
topohru0236            0.05520      30.00000      30.00000     121.00000       0.00000  
topohru0237            0.03831      60.00000      60.00000     121.00000       0.00000  
topohru0238            0.04119      60.00000      60.00000     121.00000       0.00000  
topohru0239            0.10594      10.00000      10.00000     121.00000       0.00000  
topohru0240            0.06125      30.00000      30.00000     121.00000       0.00000  
topohru0241            0.06473      30.00000      30.00000     121.00000       0.00000  
topohru0242            0.11159      10.00000      10.00000     121.00000       0.00000  
topohru0243            0.05846      30.00000      30.00000     121.00000       0.00000  
topohru0244            0.12099      10.00000      10.00000     121.00000       0.00000  
topohru0245            0.05612      30.00000      30.00000     121.00000       0.00000  
topohru0246            0.10928      10.00000      10.00000     121.00000       0.00000  
topohru0247            0.05082      30.00000      30.00000     121.00000       0.00000  
topohru0248            0.05377      30.00000      30.00000     121.00000       0.00000  
topohru0249            0.13608      10.00000      10.00000     121.00000       0.00000  
topohru0250            0.11587      10.00000      10.00000     121.00000       0.00000  
topohru0251            0.06247      30.00000      30.00000     121.00000       0.00000  
topohru0252            0.12124      10.00000      10.00000     121.00000       0.00000  
topohru0253            0.05811      30.00000      30.00000     121.00000       0.00000  
topohru0254            0.11122      10.00000      10.00000     121.00000       0.00000  
topohru0255            0.06348      30.00000      30.00000     121.00000       0.00000  
topohru0256            0.11232      10.00000      10.00000     121.00000       0.00000  
topohru0257            0.06084      30.00000      30.00000     121.00000       0.00000  
topohru0258            0.06103      30.00000      30.00000     121.00000       0.00000  
topohru0259            0.12467      10.00000      10.00000     121.00000       0.00000  
topohru0260            0.10943      10.00000      10.00000     121.00000       0.00000  
topohru0261            0.05310      30.00000      30.00000     121.00000       0.00000  
topohru0262            0.04755      60.00000      60.00000     121.00000       0.00000  
topohru0263            0.04086      60.00000      60.00000     121.00000       0.00000  
topohru0264            0.04643      60.00000      60.00000     121.00000       0.00000  
topohru0265            0.04315      60.00000      60.00000     121.00000       0.00000  
topohru0266            0.04895      60.00000      60.00000     121.00000       0.00000  
topohru0267            0.00019     121.00000     121.00000     121.00000       0.00000  
topohru0268            0.06221      30.00000      30.00000     121.00000       0.00000  
topohru0269            0.11198      10.00000      10.00000     121.00000       0.00000  
topohru0270            0.06697      30.00000      30.00000     121.00000       0.00000  
topohru0271            0.10772      10.00000      10.00000     121.00000       0.00000  
topohru0272            0.06347      30.00000      30.00000     121.00000       0.00000  
topohru0273            0.11300      10.00000      10.00000     121.00000       0.00000  
topohru0274            0.12407      10.00000      10.00000     121.00000       0.00000  
topohru0275            0.00287     121.00000     121.00000     121.00000       0.00000  
topohru0276            0.04148      60.00000      60.00000     121.00000       0.00000  
topohru0277            0.00578     121.00000     121.00000     121.00000       0.00000  
topohru0278            0.03836      60.00000      60.00000     121.00000       0.00000  
topohru0279            0.03729      60.00000      60.00000     121.00000       0.00000  
topohru0280            0.00353     121.00000     121.00000     121.00000       0.00000  
topohru0281            0.05954      30.00000      30.00000     121.00000       0.00000  
topohru0282            0.00019     121.00000     121.00000     121.00000       0.00000  
topohru0283            0.05108      30.00000      30.00000     121.00000       0.00000  
topohru0284            0.00019     121.00000     121.00000     121.00000       0.00000  
topohru0285            0.11400      10.00000      10.00000     121.00000       0.00000  
topohru0286            0.06069      30.00000      30.00000     121.00000       0.00000  
topohru0287            0.11534      10.00000      10.00000     121.00000       0.00000  
topohru0288            0.04231      60.00000      60.00000     121.00000       0.00000  
topohru0289            0.00313     121.00000     121.00000     121.00000       0.00000  
topohru0290            0.04732      60.00000      60.00000     121.00000       0.00000  
topohru0291            0.00185     121.00000     121.00000     121.00000       0.00000  
topohru0292            0.05183      30.00000      30.00000     121.00000       0.00000  
topohru0293            0.12677      10.00000      10.00000     121.00000       0.00000  
topohru0294            0.05971      30.00000      30.00000     121.00000       0.00000  
topohru0295            0.10283      10.00000      10.00000     121.00000       0.00000  
topohru0296            0.04958      60.00000      60.00000     121.00000       0.00000  
topohru0297            0.12090      10.00000      10.00000     121.00000       0.00000  
topohru0298            0.05389      30.00000      30.00000     121.00000       0.00000  
topohru0299            0.11227      10.00000      10.00000     121.00000       0.00000  
topohru0300            0.05556      30.00000      30.00000     121.00000       0.00000  
topohru0301            0.12101      10.00000      10.00000     121.00000       0.00000  
topohru0302            0.11464      10.00000      10.00000     121.00000       0.00000  
topohru0303            0.06856      30.00000      30.00000     121.00000       0.00000  
topohru0304            0.05283      30.00000      30.00000     121.00000       0.00000  
topohru0305            0.00319     121.00000     121.00000     121.00000       0.00000  
topohru0306            0.13001      10.00000      10.00000     121.00000       0.00000  
topohru0307            0.05611      30.00000      30.00000     121.00000       0.00000  
topohru0308            0.12292      10.00000      10.00000     121.00000       0.00000  
topohru0309            0.05031      30.00000      30.00000     121.00000       0.00000  
topohru0310            0.14170      10.00000      10.00000     121.00000       0.00000  
topohru0311            0.13116      10.00000      10.00000     121.00000       0.00000  
topohru0312            0.14361      10.00000      10.00000     121.00000       0.00000  
topohru0313            0.10256      10.00000      10.00000     121.00000       0.00000  
topohru0314            0.06527      30.00000      30.00000     121.00000       0.00000  
topohru0315            0.06556      30.00000      30.00000     121.00000       0.00000  
topohru0316            0.10864      10.00000      10.00000     121.00000       0.00000  
topohru0317            0.04824      60.00000      60.00000     121.00000       0.00000  
topohru0318            0.02357      90.00000      90.00000     121.00000       0.00000  
topohru0319            0.06936      30.00000      30.00000     121.00000       0.00000  
topohru0320            0.14171      10.00000      10.00000     121.00000       0.00000  
topohru0321            0.10000      10.00000      10.00000     121.00000       0.00000  
topohru0322            0.06055      30.00000      30.00000     121.00000       0.00000  
topohru0323            0.10861      10.00000      10.00000     121.00000       0.00000  
topohru0324            0.05603      30.00000      30.00000     121.00000       0.00000  
topohru0325            0.00018     121.00000     121.00000     121.00000       0.00000  
topohru0326            0.05521      30.00000      30.00000     121.00000       0.00000  
topohru0327            0.10995      10.00000      10.00000     121.00000       0.00000  
topohru0328            0.05848      30.00000      30.00000     121.00000       0.00000  
topohru0329            0.06466      30.00000      30.00000     121.00000       0.00000  
topohru0330            0.10706      10.00000      10.00000     121.00000       0.00000  
topohru0331            0.04495      60.00000      60.00000     121.00000       0.00000  