weather-wgn.cli: written by SWAT+ editor v2.3.1 on 2023-08-15 15:10 for SWAT+ rev.60.5.7
Cascata02                     -31.47000     -52.51000     169.00000        30  
 tmp_max_ave   tmp_min_ave    tmp_max_sd    tmp_min_sd       pcp_ave        pcp_sd      pcp_skew       wet_dry       wet_wet      pcp_days       pcp_hhr       slr_ave       dew_ave       wnd_ave  
    27.93000      17.90000       3.49000       3.42000     115.88000      22.84000      20.67000       0.31000       0.56000      10.63000     230.28000      19.74407       0.36051       2.45409  
    27.46000      17.89000       3.32000       3.35000      99.95000      10.05000       3.37000       0.30000       0.57000       9.60000      32.80000      18.06056       0.37745       2.18213  
    26.05000      16.41000       4.10000       3.95000      92.87000      10.04000       4.35000       0.25000       0.57000       9.67000      37.60000      15.10424       0.36558       2.27141  
    23.54000      13.63000       3.78000       4.23000      96.10000      11.24000       4.31000       0.25000       0.57000       8.60000      37.12000      11.70386       0.38017       2.25126  
    19.99000      10.71000       3.75000       4.34000      95.25000      12.06000       5.92000       0.22000       0.56000       8.43000      64.16000       8.38487       0.43223       2.07892  
    17.74000       8.49000       4.45000       4.91000      96.27000      11.44000       4.31000       0.26000       0.56000       8.73000      39.92800       7.01689       0.41828       1.96072  
    17.52000       7.96000       4.85000       4.90000      95.99000      11.16000       5.15000       0.23000       0.59000       8.93000      42.64000       7.57384       0.42039       2.02950  
    19.03000       8.97000       5.42000       4.72000     104.88000      10.28000       3.90000       0.28000       0.57000       9.97000      36.16400       9.97471       0.43767       2.29864  
    19.44000      10.20000       5.14000       4.62000     123.15000      13.17000       4.37000       0.27000       0.63000      10.50000      50.72000      12.65869       0.42350       2.36750  
    21.64000      12.44000       4.97000       4.37000     112.88000      10.91000       3.68000       0.28000       0.58000      10.03000      40.94400      15.37546       0.41894       2.38108  
    23.71000      13.69000       5.75000       4.54000      89.64000      11.63000       4.58000       0.25000       0.50000       7.87000      37.32000      19.47691       0.36012       2.26160  
    26.39000      16.08000       5.08000       4.29000      96.18000      12.11000       5.05000       0.26000       0.51000       8.67000      53.48000      20.16773       0.34635       2.12536  
