157158tmp.tem: Temperature data - file written by SWAT+ editor 2025-11-04 13:23:50.327572
nbyr     tstep       lat       lon      elev
  14         0    39.031    99.281  3463.000
2005    1  -13.28000   -24.70000  
2005    2  -12.41000   -24.69000  
2005    3  -10.41000   -23.33000  
2005    4   -3.98000   -17.63000  
2005    5   -5.74000   -21.68000  
2005    6   -8.99000   -21.39000  
2005    7   -8.57000   -20.15000  
2005    8   -2.44000   -18.20000  
2005    9   -8.10000   -18.85000  
2005   10  -11.66000   -20.60000  
2005   11  -14.31000   -18.81000  
2005   12  -17.03000   -25.91000  
2005   13  -12.68000   -23.63000  
2005   14  -12.76000   -23.53000  
2005   15  -14.26000   -23.32000  
2005   16  -13.18000   -23.19000  
2005   17  -12.81000   -23.92000  
2005   18  -17.44000   -24.30000  
2005   19  -19.00000   -25.72000  
2005   20  -18.06000   -26.17000  
2005   21  -18.51000   -29.79000  
2005   22  -17.04000   -30.08000  
2005   23  -21.31000   -30.42000  
2005   24  -23.01000   -29.90000  
2005   25  -23.30000   -31.25000  
2005   26  -21.45000   -31.50000  
2005   27  -22.71000   -29.14000  
2005   28  -19.15000   -28.07000  
2005   29  -20.10000   -31.13000  
2005   30  -18.34000   -32.33000  
2005   31  -16.61000   -31.03000  
2005   32  -14.72000   -28.72000  
2005   33  -12.08000   -23.67000  
2005   34  -17.12000   -27.85000  
2005   35  -13.91000   -27.49000  
2005   36  -14.62000   -26.73000  
2005   37  -17.06000   -28.21000  
2005   38  -17.96000   -29.02000  
2005   39  -17.02000   -28.53000  
2005   40  -11.61000   -25.27000  
2005   41  -16.96000   -26.06000  
2005   42  -15.80000   -26.96000  
2005   43  -18.41000   -26.15000  
2005   44  -13.71000   -26.45000  
2005   45   -7.02000   -23.98000  
2005   46   -9.00000   -23.44000  
2005   47  -11.53000   -23.81000  
2005   48  -11.84000   -20.26000  
2005   49   -7.11000   -21.23000  
2005   50   -3.80000   -19.18000  
2005   51   -3.87000   -15.67000  
2005   52   -0.63000   -15.90000  
2005   53    4.54000   -17.15000  
2005   54   -6.15000   -14.68000  
2005   55  -11.50000   -19.33000  
2005   56  -10.34000   -20.23000  
2005   57   -7.96000   -19.79000  
2005   58   -7.53000   -17.53000  
2005   59   -1.87000   -15.84000  
2005   60   -2.20000   -14.68000  
2005   61    0.70000   -14.86000  
2005   62    0.87000   -12.13000  
2005   63    1.26000   -11.18000  
2005   64   -0.91000   -11.43000  
2005   65   -2.03000    -9.27000  
2005   66   -0.09000   -10.38000  
2005   67    1.82000    -9.93000  
2005   68    3.33000    -8.29000  
2005   69    2.02000    -8.72000  
2005   70    1.61000   -11.88000  
2005   71    0.37000   -11.05000  
2005   72    7.48000    -9.62000  
2005   73    0.72000   -10.16000  
2005   74    5.11000    -8.20000  
2005   75    8.58000    -5.53000  
2005   76    6.16000    -6.04000  
2005   77    6.91000    -7.63000  
2005   78    1.66000    -8.26000  
2005   79   -4.25000   -12.23000  
2005   80   -0.31000   -13.46000  
2005   81    1.16000   -11.33000  
2005   82    2.97000    -8.06000  
2005   83    3.78000    -6.54000  
2005   84    6.34000    -6.11000  
2005   85    4.10000    -9.46000  
2005   86    0.55000   -11.55000  
2005   87   -6.00000   -12.12000  
2005   88   -0.63000   -11.31000  
2005   89   -0.79000   -13.45000  
2005   90   -9.00000   -14.46000  
2005   91   -1.60000   -12.88000  
2005   92    2.32000    -9.68000  
2005   93    1.64000    -8.11000  
2005   94    4.12000    -6.76000  
2005   95    7.94000    -6.47000  
2005   96   12.74000    -4.18000  
2005   97    5.20000    -3.09000  
2005   98    9.86000    -2.77000  
2005   99    4.54000    -4.88000  
2005  100    4.02000    -7.03000  
2005  101   -1.39000    -9.02000  
2005  102    3.80000    -8.20000  
2005  103    5.24000    -4.76000  
2005  104    6.45000    -2.52000  
2005  105    9.49000    -0.17000  
2005  106   12.94000     0.97000  
2005  107   13.37000     2.19000  
2005  108    7.87000    -1.35000  
2005  109    5.84000   -10.23000  
2005  110   -5.20000   -10.34000  
2005  111   -3.55000   -10.66000  
2005  112   -1.11000    -9.42000  
2005  113    6.48000    -5.87000  
2005  114    9.42000    -2.75000  
2005  115   11.01000    -1.59000  
2005  116    7.17000    -0.81000  
2005  117   11.88000    -0.04000  
2005  118   11.92000     2.32000  
2005  119    8.54000    -0.18000  
2005  120   14.91000     3.90000  
2005  121   12.14000    -3.98000  
2005  122    7.41000    -6.39000  
2005  123    8.37000    -3.35000  
2005  124   13.59000    -0.46000  
2005  125   17.30000     1.93000  
2005  126    5.64000    -0.54000  
2005  127    8.01000    -0.22000  
2005  128    3.30000    -4.81000  
2005  129    8.37000    -1.50000  
2005  130   12.16000    -6.14000  
2005  131   13.01000    -1.13000  
2005  132   13.23000     1.74000  
2005  133   13.85000     3.59000  
2005  134   14.70000     4.89000  
2005  135   15.96000     6.57000  
2005  136   16.33000     1.96000  
2005  137   11.64000     1.55000  
2005  138   13.44000     0.50000  
2005  139   14.57000     1.63000  
2005  140   13.71000     4.61000  
2005  141    7.44000     1.91000  
2005  142   12.33000     3.58000  
2005  143   16.50000     5.60000  
2005  144   16.49000     6.94000  
2005  145   18.21000     3.96000  
2005  146    7.66000     0.50000  
2005  147   14.99000     2.53000  
2005  148   13.72000     1.64000  
2005  149   14.65000    -0.62000  
2005  150   16.11000     4.43000  
2005  151   16.03000     7.77000  
2005  152   17.15000     4.73000  
2005  153   18.88000     5.42000  
2005  154   20.43000     8.09000  
2005  155   18.87000     5.85000  
2005  156   10.90000     4.26000  
2005  157   14.03000     5.36000  
2005  158   14.45000     7.46000  
2005  159   17.57000     7.73000  
2005  160   20.61000     8.22000  
2005  161   18.79000     8.78000  
2005  162   21.01000     7.42000  
2005  163   11.53000     3.73000  
2005  164   15.70000     4.09000  
2005  165   13.20000     4.29000  
2005  166   16.21000     6.80000  
2005  167   18.25000     3.76000  
2005  168   18.62000     6.95000  
2005  169   16.56000     4.14000  
2005  170    8.95000     3.40000  
2005  171   15.92000     7.13000  
2005  172    8.77000     1.57000  
2005  173   13.92000     3.10000  
2005  174   15.66000     4.17000  
2005  175   18.89000     8.55000  
2005  176   18.45000     9.60000  
2005  177   17.19000     7.84000  
2005  178   18.16000     6.16000  
2005  179   10.91000     5.33000  
2005  180   17.42000     8.42000  
2005  181   19.36000     9.28000  
2005  182   21.45000     8.82000  
2005  183   19.65000     7.94000  
2005  184    8.91000     4.99000  
2005  185   18.01000     5.10000  
2005  186   20.68000     8.35000  
2005  187   22.10000     8.31000  
2005  188   22.11000    10.02000  
2005  189   18.99000     7.86000  
2005  190   15.10000     4.38000  
2005  191   11.58000     6.24000  
2005  192   15.28000     6.29000  
2005  193   14.24000     2.39000  
2005  194   15.24000     3.11000  
2005  195   17.07000     6.92000  
2005  196   19.76000     9.47000  
2005  197   12.02000     4.83000  
2005  198   16.70000     6.66000  
2005  199   18.52000     5.87000  
2005  200   19.69000     5.80000  
2005  201   19.45000     9.17000  
2005  202   16.69000     7.37000  
2005  203   21.12000    10.73000  
2005  204   19.24000     8.72000  
2005  205   19.14000     9.52000  
2005  206   18.00000     8.35000  
2005  207   15.37000     9.53000  
2005  208   11.25000     7.20000  
2005  209   12.84000     5.70000  
2005  210    8.71000     4.10000  
2005  211    7.43000     4.03000  
2005  212   11.59000     4.85000  
2005  213   16.03000     6.99000  
2005  214   18.31000     8.67000  
2005  215   19.49000    10.55000  
2005  216   21.73000    11.28000  
2005  217   21.98000     9.53000  
2005  218   15.27000     5.67000  
2005  219    5.49000     2.05000  
2005  220   13.44000     2.04000  
2005  221   13.80000     2.42000  
2005  222   14.20000     5.42000  
2005  223   10.71000     1.70000  
2005  224   14.12000     2.65000  
2005  225   16.07000     5.30000  
2005  226   17.17000     7.57000  
2005  227   12.25000     4.68000  
2005  228   16.59000     5.82000  
2005  229   18.67000     7.72000  
2005  230   20.13000     8.68000  
2005  231   15.35000     3.53000  
2005  232    8.98000    -0.42000  
2005  233   14.63000     1.55000  
2005  234   15.69000     3.57000  
2005  235   15.55000     5.16000  
2005  236   17.23000     5.54000  
2005  237   16.03000     4.61000  
2005  238   15.20000     5.49000  
2005  239   17.09000     4.90000  
2005  240    9.74000    -1.68000  
2005  241    7.63000    -1.05000  
2005  242   13.06000     0.69000  
2005  243   15.08000     2.39000  
2005  244   13.26000     2.78000  
2005  245   11.72000     1.13000  
2005  246   13.81000     2.04000  
2005  247   13.68000    -1.51000  
2005  248   13.90000     1.92000  
2005  249   12.39000     0.57000  
2005  250    9.87000     1.87000  
2005  251    7.57000     0.72000  
2005  252    9.25000    -0.18000  
2005  253   13.24000     0.88000  
2005  254   15.08000     2.56000  
2005  255   16.38000     4.29000  
2005  256   14.66000     2.68000  
2005  257   14.80000     2.85000  
2005  258   14.79000     3.31000  
2005  259   14.91000     3.10000  
2005  260   12.68000     1.60000  
2005  261   16.67000     3.12000  
2005  262   16.17000     2.09000  
2005  263   13.95000     1.85000  
2005  264    5.63000     1.02000  
2005  265    4.66000     0.61000  
2005  266    4.85000     0.49000  
2005  267    2.23000    -2.06000  
2005  268    1.42000    -1.08000  
2005  269    1.05000    -0.57000  
2005  270    6.65000    -0.18000  
2005  271   11.47000     0.19000  
2005  272   13.40000     1.10000  
2005  273   15.23000     2.76000  
2005  274   15.58000     1.36000  
2005  275   13.14000     1.43000  
2005  276    5.45000    -0.17000  
2005  277    4.11000    -0.76000  
2005  278    8.32000    -2.88000  
2005  279    4.59000    -2.66000  
2005  280    4.36000    -2.10000  
2005  281    5.56000    -3.71000  
2005  282    5.12000    -5.18000  
2005  283    4.69000    -4.69000  
2005  284    7.81000    -3.91000  
2005  285    8.39000    -3.70000  
2005  286    6.70000    -3.70000  
2005  287    9.58000    -1.07000  
2005  288    9.65000    -4.18000  
2005  289    7.20000    -3.60000  
2005  290    2.20000    -4.61000  
2005  291    7.36000    -4.84000  
2005  292    9.42000    -3.28000  
2005  293   11.62000    -4.06000  
2005  294   -3.52000   -11.79000  
2005  295   -2.58000   -11.73000  
2005  296   -1.11000   -11.31000  
2005  297    2.88000   -11.12000  
2005  298    2.02000   -10.97000  
2005  299    3.76000   -10.13000  
2005  300    0.53000    -9.38000  
2005  301    2.83000    -8.25000  
2005  302    3.36000    -8.48000  
2005  303    2.89000    -9.09000  
2005  304    2.41000   -10.42000  
2005  305    3.47000   -10.72000  
2005  306    3.58000    -9.82000  
2005  307    3.51000   -10.47000  
2005  308    0.30000   -11.08000  
2005  309   -1.41000   -11.18000  
2005  310    2.95000    -9.69000  
2005  311    2.24000    -9.39000  
2005  312    0.00000    -8.28000  
2005  313    5.81000    -8.23000  
2005  314   -2.71000    -8.88000  
2005  315    1.04000   -12.20000  
2005  316   -6.97000   -14.90000  
2005  317   -4.61000   -14.28000  
2005  318   -5.36000   -15.23000  
2005  319   -3.88000   -15.55000  
2005  320   -8.93000   -16.14000  
2005  321   -8.74000   -17.63000  
2005  322   -6.48000   -17.37000  
2005  323   -3.75000   -16.74000  
2005  324   -3.94000   -16.54000  
2005  325   -5.87000   -16.89000  
2005  326   -7.08000   -14.74000  
2005  327   -5.74000   -15.97000  
2005  328   -4.13000   -16.03000  
2005  329   -6.35000   -14.91000  
2005  330   -5.02000   -15.92000  
2005  331   -4.35000   -17.09000  
2005  332   -3.81000   -14.65000  
2005  333   -2.04000   -14.84000  
2005  334   -5.02000   -15.76000  
2005  335   -1.22000   -15.94000  
2005  336   -5.09000   -21.97000  
2005  337  -18.22000   -27.16000  
2005  338  -11.84000   -27.40000  
2005  339   -7.57000   -19.30000  
2005  340   -8.87000   -17.56000  
2005  341   -9.08000   -14.57000  
2005  342   -0.88000   -16.11000  
2005  343    0.25000   -18.27000  
2005  344   -2.95000   -18.33000  
2005  345   -2.75000   -16.31000  
2005  346   -8.40000   -19.53000  
2005  347   -8.42000   -19.15000  
2005  348   -6.81000   -18.19000  
2005  349   -2.89000   -18.54000  
2005  350   -5.72000   -18.67000  
2005  351   -1.12000   -16.77000  
2005  352    0.48000   -15.42000  
2005  353   -7.07000   -15.58000  
2005  354  -11.15000   -24.77000  
2005  355  -16.79000   -25.36000  
2005  356   -9.89000   -19.65000  
2005  357   -6.79000   -17.82000  
2005  358   -8.08000   -19.65000  
2005  359   -6.42000   -19.64000  
2005  360   -4.64000   -18.16000  
2005  361  -14.65000   -25.22000  
2005  362  -13.73000   -25.69000  
2005  363  -11.11000   -24.74000  
2005  364   -8.87000   -23.13000  
2005  365  -13.27000   -22.97000  
2006    1  -13.28000   -24.70000  
2006    2  -12.41000   -24.69000  
2006    3  -10.41000   -23.33000  
2006    4   -3.98000   -17.63000  
2006    5   -5.74000   -21.68000  
2006    6   -8.99000   -21.39000  
2006    7   -8.57000   -20.15000  
2006    8   -2.44000   -18.20000  
2006    9   -8.10000   -18.85000  
2006   10  -11.66000   -20.60000  
2006   11  -14.31000   -18.81000  
2006   12  -17.03000   -25.91000  
2006   13  -12.68000   -23.63000  
2006   14  -12.76000   -23.53000  
2006   15  -14.26000   -23.32000  
2006   16  -13.18000   -23.19000  
2006   17  -12.81000   -23.92000  
2006   18  -17.44000   -24.30000  
2006   19  -19.00000   -25.72000  
2006   20  -18.06000   -26.17000  
2006   21  -18.51000   -29.79000  
2006   22  -17.04000   -30.08000  
2006   23  -21.31000   -30.42000  
2006   24  -23.01000   -29.90000  
2006   25  -23.30000   -31.25000  
2006   26  -21.45000   -31.50000  
2006   27  -22.71000   -29.14000  
2006   28  -19.15000   -28.07000  
2006   29  -20.10000   -31.13000  
2006   30  -18.34000   -32.33000  
2006   31  -16.61000   -31.03000  
2006   32  -14.72000   -28.72000  
2006   33  -12.08000   -23.67000  
2006   34  -17.12000   -27.85000  
2006   35  -13.91000   -27.49000  
2006   36  -14.62000   -26.73000  
2006   37  -17.06000   -28.21000  
2006   38  -17.96000   -29.02000  
2006   39  -17.02000   -28.53000  
2006   40  -11.61000   -25.27000  
2006   41  -16.96000   -26.06000  
2006   42  -15.80000   -26.96000  
2006   43  -18.41000   -26.15000  
2006   44  -13.71000   -26.45000  
2006   45   -7.02000   -23.98000  
2006   46   -9.00000   -23.44000  
2006   47  -11.53000   -23.81000  
2006   48  -11.84000   -20.26000  
2006   49   -7.11000   -21.23000  
2006   50   -3.80000   -19.18000  
2006   51   -3.87000   -15.67000  
2006   52   -0.63000   -15.90000  
2006   53    4.54000   -17.15000  
2006   54   -6.15000   -14.68000  
2006   55  -11.50000   -19.33000  
2006   56  -10.34000   -20.23000  
2006   57   -7.96000   -19.79000  
2006   58   -7.53000   -17.53000  
2006   59   -1.87000   -15.84000  
2006   60   -2.20000   -14.68000  
2006   61    0.70000   -14.86000  
2006   62    0.87000   -12.13000  
2006   63    1.26000   -11.18000  
2006   64   -0.91000   -11.43000  
2006   65   -2.03000    -9.27000  
2006   66   -0.09000   -10.38000  
2006   67    1.82000    -9.93000  
2006   68    3.33000    -8.29000  
2006   69    2.02000    -8.72000  
2006   70    1.61000   -11.88000  
2006   71    0.37000   -11.05000  
2006   72    7.48000    -9.62000  
2006   73    0.72000   -10.16000  
2006   74    5.11000    -8.20000  
2006   75    8.58000    -5.53000  
2006   76    6.16000    -6.04000  
2006   77    6.91000    -7.63000  
2006   78    1.66000    -8.26000  
2006   79   -4.25000   -12.23000  
2006   80   -0.31000   -13.46000  
2006   81    1.16000   -11.33000  
2006   82    2.97000    -8.06000  
2006   83    3.78000    -6.54000  
2006   84    6.34000    -6.11000  
2006   85    4.10000    -9.46000  
2006   86    0.55000   -11.55000  
2006   87   -6.00000   -12.12000  
2006   88   -0.63000   -11.31000  
2006   89   -0.79000   -13.45000  
2006   90   -9.00000   -14.46000  
2006   91   -1.60000   -12.88000  
2006   92    2.32000    -9.68000  
2006   93    1.64000    -8.11000  
2006   94    4.12000    -6.76000  
2006   95    7.94000    -6.47000  
2006   96   12.74000    -4.18000  
2006   97    5.20000    -3.09000  
2006   98    9.86000    -2.77000  
2006   99    4.54000    -4.88000  
2006  100    4.02000    -7.03000  
2006  101   -1.39000    -9.02000  
2006  102    3.80000    -8.20000  
2006  103    5.24000    -4.76000  
2006  104    6.45000    -2.52000  
2006  105    9.49000    -0.17000  
2006  106   12.94000     0.97000  
2006  107   13.37000     2.19000  
2006  108    7.87000    -1.35000  
2006  109    5.84000   -10.23000  
2006  110   -5.20000   -10.34000  
2006  111   -3.55000   -10.66000  
2006  112   -1.11000    -9.42000  
2006  113    6.48000    -5.87000  
2006  114    9.42000    -2.75000  
2006  115   11.01000    -1.59000  
2006  116    7.17000    -0.81000  
2006  117   11.88000    -0.04000  
2006  118   11.92000     2.32000  
2006  119    8.54000    -0.18000  
2006  120   14.91000     3.90000  
2006  121   12.14000    -3.98000  
2006  122    7.41000    -6.39000  
2006  123    8.37000    -3.35000  
2006  124   13.59000    -0.46000  
2006  125   17.30000     1.93000  
2006  126    5.64000    -0.54000  
2006  127    8.01000    -0.22000  
2006  128    3.30000    -4.81000  
2006  129    8.37000    -1.50000  
2006  130   12.16000    -6.14000  
2006  131   13.01000    -1.13000  
2006  132   13.23000     1.74000  
2006  133   13.85000     3.59000  
2006  134   14.70000     4.89000  
2006  135   15.96000     6.57000  
2006  136   16.33000     1.96000  
2006  137   11.64000     1.55000  
2006  138   13.44000     0.50000  
2006  139   14.57000     1.63000  
2006  140   13.71000     4.61000  
2006  141    7.44000     1.91000  
2006  142   12.33000     3.58000  
2006  143   16.50000     5.60000  
2006  144   16.49000     6.94000  
2006  145   18.21000     3.96000  
2006  146    7.66000     0.50000  
2006  147   14.99000     2.53000  
2006  148   13.72000     1.64000  
2006  149   14.65000    -0.62000  
2006  150   16.11000     4.43000  
2006  151   16.03000     7.77000  
2006  152   17.15000     4.73000  
2006  153   18.88000     5.42000  
2006  154   20.43000     8.09000  
2006  155   18.87000     5.85000  
2006  156   10.90000     4.26000  
2006  157   14.03000     5.36000  
2006  158   14.45000     7.46000  
2006  159   17.57000     7.73000  
2006  160   20.61000     8.22000  
2006  161   18.79000     8.78000  
2006  162   21.01000     7.42000  
2006  163   11.53000     3.73000  
2006  164   15.70000     4.09000  
2006  165   13.20000     4.29000  
2006  166   16.21000     6.80000  
2006  167   18.25000     3.76000  
2006  168   18.62000     6.95000  
2006  169   16.56000     4.14000  
2006  170    8.95000     3.40000  
2006  171   15.92000     7.13000  
2006  172    8.77000     1.57000  
2006  173   13.92000     3.10000  
2006  174   15.66000     4.17000  
2006  175   18.89000     8.55000  
2006  176   18.45000     9.60000  
2006  177   17.19000     7.84000  
2006  178   18.16000     6.16000  
2006  179   10.91000     5.33000  
2006  180   17.42000     8.42000  
2006  181   19.36000     9.28000  
2006  182   21.45000     8.82000  
2006  183   19.65000     7.94000  
2006  184    8.91000     4.99000  
2006  185   18.01000     5.10000  
2006  186   20.68000     8.35000  
2006  187   22.10000     8.31000  
2006  188   22.11000    10.02000  
2006  189   18.99000     7.86000  
2006  190   15.10000     4.38000  
2006  191   11.58000     6.24000  
2006  192   15.28000     6.29000  
2006  193   14.24000     2.39000  
2006  194   15.24000     3.11000  
2006  195   17.07000     6.92000  
2006  196   19.76000     9.47000  
2006  197   12.02000     4.83000  
2006  198   16.70000     6.66000  
2006  199   18.52000     5.87000  
2006  200   19.69000     5.80000  
2006  201   19.45000     9.17000  
2006  202   16.69000     7.37000  
2006  203   21.12000    10.73000  
2006  204   19.24000     8.72000  
2006  205   19.14000     9.52000  
2006  206   18.00000     8.35000  
2006  207   15.37000     9.53000  
2006  208   11.25000     7.20000  
2006  209   12.84000     5.70000  
2006  210    8.71000     4.10000  
2006  211    7.43000     4.03000  
2006  212   11.59000     4.85000  
2006  213   16.03000     6.99000  
2006  214   18.31000     8.67000  
2006  215   19.49000    10.55000  
2006  216   21.73000    11.28000  
2006  217   21.98000     9.53000  
2006  218   15.27000     5.67000  
2006  219    5.49000     2.05000  
2006  220   13.44000     2.04000  
2006  221   13.80000     2.42000  
2006  222   14.20000     5.42000  
2006  223   10.71000     1.70000  
2006  224   14.12000     2.65000  
2006  225   16.07000     5.30000  
2006  226   17.17000     7.57000  
2006  227   12.25000     4.68000  
2006  228   16.59000     5.82000  
2006  229   18.67000     7.72000  
2006  230   20.13000     8.68000  
2006  231   15.35000     3.53000  
2006  232    8.98000    -0.42000  
2006  233   14.63000     1.55000  
2006  234   15.69000     3.57000  
2006  235   15.55000     5.16000  
2006  236   17.23000     5.54000  
2006  237   16.03000     4.61000  
2006  238   15.20000     5.49000  
2006  239   17.09000     4.90000  
2006  240    9.74000    -1.68000  
2006  241    7.63000    -1.05000  
2006  242   13.06000     0.69000  
2006  243   15.08000     2.39000  
2006  244   13.26000     2.78000  
2006  245   11.72000     1.13000  
2006  246   13.81000     2.04000  
2006  247   13.68000    -1.51000  
2006  248   13.90000     1.92000  
2006  249   12.39000     0.57000  
2006  250    9.87000     1.87000  
2006  251    7.57000     0.72000  
2006  252    9.25000    -0.18000  
2006  253   13.24000     0.88000  
2006  254   15.08000     2.56000  
2006  255   16.38000     4.29000  
2006  256   14.66000     2.68000  
2006  257   14.80000     2.85000  
2006  258   14.79000     3.31000  
2006  259   14.91000     3.10000  
2006  260   12.68000     1.60000  
2006  261   16.67000     3.12000  
2006  262   16.17000     2.09000  
2006  263   13.95000     1.85000  
2006  264    5.63000     1.02000  
2006  265    4.66000     0.61000  
2006  266    4.85000     0.49000  
2006  267    2.23000    -2.06000  
2006  268    1.42000    -1.08000  
2006  269    1.05000    -0.57000  
2006  270    6.65000    -0.18000  
2006  271   11.47000     0.19000  
2006  272   13.40000     1.10000  
2006  273   15.23000     2.76000  
2006  274   15.58000     1.36000  
2006  275   13.14000     1.43000  
2006  276    5.45000    -0.17000  
2006  277    4.11000    -0.76000  
2006  278    8.32000    -2.88000  
2006  279    4.59000    -2.66000  
2006  280    4.36000    -2.10000  
2006  281    5.56000    -3.71000  
2006  282    5.12000    -5.18000  
2006  283    4.69000    -4.69000  
2006  284    7.81000    -3.91000  
2006  285    8.39000    -3.70000  
2006  286    6.70000    -3.70000  
2006  287    9.58000    -1.07000  
2006  288    9.65000    -4.18000  
2006  289    7.20000    -3.60000  
2006  290    2.20000    -4.61000  
2006  291    7.36000    -4.84000  
2006  292    9.42000    -3.28000  
2006  293   11.62000    -4.06000  
2006  294   -3.52000   -11.79000  
2006  295   -2.58000   -11.73000  
2006  296   -1.11000   -11.31000  
2006  297    2.88000   -11.12000  
2006  298    2.02000   -10.97000  
2006  299    3.76000   -10.13000  
2006  300    0.53000    -9.38000  
2006  301    2.83000    -8.25000  
2006  302    3.36000    -8.48000  
2006  303    2.89000    -9.09000  
2006  304    2.41000   -10.42000  
2006  305    3.47000   -10.72000  
2006  306    3.58000    -9.82000  
2006  307    3.51000   -10.47000  
2006  308    0.30000   -11.08000  
2006  309   -1.41000   -11.18000  
2006  310    2.95000    -9.69000  
2006  311    2.24000    -9.39000  
2006  312    0.00000    -8.28000  
2006  313    5.81000    -8.23000  
2006  314   -2.71000    -8.88000  
2006  315    1.04000   -12.20000  
2006  316   -6.97000   -14.90000  
2006  317   -4.61000   -14.28000  
2006  318   -5.36000   -15.23000  
2006  319   -3.88000   -15.55000  
2006  320   -8.93000   -16.14000  
2006  321   -8.74000   -17.63000  
2006  322   -6.48000   -17.37000  
2006  323   -3.75000   -16.74000  
2006  324   -3.94000   -16.54000  
2006  325   -5.87000   -16.89000  
2006  326   -7.08000   -14.74000  
2006  327   -5.74000   -15.97000  
2006  328   -4.13000   -16.03000  
2006  329   -6.35000   -14.91000  
2006  330   -5.02000   -15.92000  
2006  331   -4.35000   -17.09000  
2006  332   -3.81000   -14.65000  
2006  333   -2.04000   -14.84000  
2006  334   -5.02000   -15.76000  
2006  335   -1.22000   -15.94000  
2006  336   -5.09000   -21.97000  
2006  337  -18.22000   -27.16000  
2006  338  -11.84000   -27.40000  
2006  339   -7.57000   -19.30000  
2006  340   -8.87000   -17.56000  
2006  341   -9.08000   -14.57000  
2006  342   -0.88000   -16.11000  
2006  343    0.25000   -18.27000  
2006  344   -2.95000   -18.33000  
2006  345   -2.75000   -16.31000  
2006  346   -8.40000   -19.53000  
2006  347   -8.42000   -19.15000  
2006  348   -6.81000   -18.19000  
2006  349   -2.89000   -18.54000  
2006  350   -5.72000   -18.67000  
2006  351   -1.12000   -16.77000  
2006  352    0.48000   -15.42000  
2006  353   -7.07000   -15.58000  
2006  354  -11.15000   -24.77000  
2006  355  -16.79000   -25.36000  
2006  356   -9.89000   -19.65000  
2006  357   -6.79000   -17.82000  
2006  358   -8.08000   -19.65000  
2006  359   -6.42000   -19.64000  
2006  360   -4.64000   -18.16000  
2006  361  -14.65000   -25.22000  
2006  362  -13.73000   -25.69000  
2006  363  -11.11000   -24.74000  
2006  364   -8.87000   -23.13000  
2006  365  -13.27000   -22.97000  
2007    1  -13.28000   -24.70000  
2007    2  -12.41000   -24.69000  
2007    3  -10.41000   -23.33000  
2007    4   -3.98000   -17.63000  
2007    5   -5.74000   -21.68000  
2007    6   -8.99000   -21.39000  
2007    7   -8.57000   -20.15000  
2007    8   -2.44000   -18.20000  
2007    9   -8.10000   -18.85000  
2007   10  -11.66000   -20.60000  
2007   11  -14.31000   -18.81000  
2007   12  -17.03000   -25.91000  
2007   13  -12.68000   -23.63000  
2007   14  -12.76000   -23.53000  
2007   15  -14.26000   -23.32000  
2007   16  -13.18000   -23.19000  
2007   17  -12.81000   -23.92000  
2007   18  -17.44000   -24.30000  
2007   19  -19.00000   -25.72000  
2007   20  -18.06000   -26.17000  
2007   21  -18.51000   -29.79000  
2007   22  -17.04000   -30.08000  
2007   23  -21.31000   -30.42000  
2007   24  -23.01000   -29.90000  
2007   25  -23.30000   -31.25000  
2007   26  -21.45000   -31.50000  
2007   27  -22.71000   -29.14000  
2007   28  -19.15000   -28.07000  
2007   29  -20.10000   -31.13000  
2007   30  -18.34000   -32.33000  
2007   31  -16.61000   -31.03000  
2007   32  -14.72000   -28.72000  
2007   33  -12.08000   -23.67000  
2007   34  -17.12000   -27.85000  
2007   35  -13.91000   -27.49000  
2007   36  -14.62000   -26.73000  
2007   37  -17.06000   -28.21000  
2007   38  -17.96000   -29.02000  
2007   39  -17.02000   -28.53000  
2007   40  -11.61000   -25.27000  
2007   41  -16.96000   -26.06000  
2007   42  -15.80000   -26.96000  
2007   43  -18.41000   -26.15000  
2007   44  -13.71000   -26.45000  
2007   45   -7.02000   -23.98000  
2007   46   -9.00000   -23.44000  
2007   47  -11.53000   -23.81000  
2007   48  -11.84000   -20.26000  
2007   49   -7.11000   -21.23000  
2007   50   -3.80000   -19.18000  
2007   51   -3.87000   -15.67000  
2007   52   -0.63000   -15.90000  
2007   53    4.54000   -17.15000  
2007   54   -6.15000   -14.68000  
2007   55  -11.50000   -19.33000  
2007   56  -10.34000   -20.23000  
2007   57   -7.96000   -19.79000  
2007   58   -7.53000   -17.53000  
2007   59   -1.87000   -15.84000  
2007   60   -2.20000   -14.68000  
2007   61    0.70000   -14.86000  
2007   62    0.87000   -12.13000  
2007   63    1.26000   -11.18000  
2007   64   -0.91000   -11.43000  
2007   65   -2.03000    -9.27000  
2007   66   -0.09000   -10.38000  
2007   67    1.82000    -9.93000  
2007   68    3.33000    -8.29000  
2007   69    2.02000    -8.72000  
2007   70    1.61000   -11.88000  
2007   71    0.37000   -11.05000  
2007   72    7.48000    -9.62000  
2007   73    0.72000   -10.16000  
2007   74    5.11000    -8.20000  
2007   75    8.58000    -5.53000  
2007   76    6.16000    -6.04000  
2007   77    6.91000    -7.63000  
2007   78    1.66000    -8.26000  
2007   79   -4.25000   -12.23000  
2007   80   -0.31000   -13.46000  
2007   81    1.16000   -11.33000  
2007   82    2.97000    -8.06000  
2007   83    3.78000    -6.54000  
2007   84    6.34000    -6.11000  
2007   85    4.10000    -9.46000  
2007   86    0.55000   -11.55000  
2007   87   -6.00000   -12.12000  
2007   88   -0.63000   -11.31000  
2007   89   -0.79000   -13.45000  
2007   90   -9.00000   -14.46000  
2007   91   -1.60000   -12.88000  
2007   92    2.32000    -9.68000  
2007   93    1.64000    -8.11000  
2007   94    4.12000    -6.76000  
2007   95    7.94000    -6.47000  
2007   96   12.74000    -4.18000  
2007   97    5.20000    -3.09000  
2007   98    9.86000    -2.77000  