157154tmp.tem: Temperature data - file written by SWAT+ editor 2025-11-04 13:23:50.300706
nbyr     tstep       lat       lon      elev
  14         0    39.031    98.281  4072.000
2005    1  -10.84000   -27.57000  
2005    2  -12.27000   -27.54000  
2005    3   -8.73000   -27.88000  
2005    4   -7.83000   -23.94000  
2005    5   -6.77000   -24.86000  
2005    6   -8.60000   -22.75000  
2005    7  -10.20000   -25.88000  
2005    8   -4.74000   -21.86000  
2005    9   -6.30000   -21.58000  
2005   10   -8.28000   -19.98000  
2005   11  -12.92000   -20.23000  
2005   12  -14.32000   -28.44000  
2005   13  -13.16000   -27.81000  
2005   14  -14.55000   -28.23000  
2005   15  -13.51000   -29.37000  
2005   16  -13.38000   -27.45000  
2005   17  -13.19000   -27.74000  
2005   18  -14.50000   -24.10000  
2005   19  -16.84000   -24.57000  
2005   20  -18.76000   -27.19000  
2005   21  -19.01000   -33.49000  
2005   22  -19.12000   -32.82000  
2005   23  -20.77000   -33.64000  
2005   24  -21.27000   -30.34000  
2005   25  -18.74000   -34.02000  
2005   26  -20.74000   -34.17000  
2005   27  -20.78000   -31.11000  
2005   28  -19.00000   -28.64000  
2005   29  -21.67000   -37.50000  
2005   30  -20.62000   -38.60000  
2005   31  -20.56000   -40.31000  
2005   32  -18.77000   -39.06000  
2005   33  -15.87000   -34.32000  
2005   34  -18.07000   -35.98000  
2005   35  -16.04000   -34.68000  
2005   36  -15.98000   -36.27000  
2005   37  -16.27000   -31.79000  
2005   38  -14.81000   -32.04000  
2005   39  -16.24000   -32.27000  
2005   40  -14.64000   -31.38000  
2005   41  -16.94000   -29.80000  
2005   42  -17.64000   -31.60000  
2005   43  -17.97000   -30.97000  
2005   44  -15.06000   -33.45000  
2005   45  -11.08000   -30.32000  
2005   46   -9.23000   -30.52000  
2005   47  -11.42000   -27.25000  
2005   48  -13.03000   -27.09000  
2005   49   -9.21000   -26.31000  
2005   50   -7.22000   -25.65000  
2005   51   -7.37000   -25.28000  
2005   52   -2.66000   -22.22000  
2005   53    1.39000   -23.21000  
2005   54   -2.50000   -18.45000  
2005   55  -10.66000   -21.96000  
2005   56  -10.90000   -23.52000  
2005   57   -8.53000   -22.88000  
2005   58   -9.04000   -20.69000  
2005   59   -4.51000   -20.35000  
2005   60   -4.63000   -20.20000  
2005   61   -1.60000   -21.14000  
2005   62   -2.09000   -20.47000  
2005   63   -0.20000   -17.19000  
2005   64   -0.16000   -12.85000  
2005   65   -3.10000   -14.24000  
2005   66   -2.86000   -16.93000  
2005   67   -0.58000   -16.36000  
2005   68    0.24000   -13.63000  
2005   69    0.56000   -14.05000  
2005   70   -0.90000   -15.35000  
2005   71   -1.46000   -16.88000  
2005   72    3.23000   -14.60000  
2005   73   -0.44000   -14.16000  
2005   74    1.47000   -14.71000  
2005   75    4.59000   -12.49000  
2005   76    2.59000   -10.35000  
2005   77    2.51000   -11.24000  
2005   78    1.20000   -12.76000  
2005   79   -3.82000   -14.80000  
2005   80   -2.07000   -15.29000  
2005   81   -0.72000   -15.41000  
2005   82    0.08000   -13.10000  
2005   83    0.36000   -13.14000  
2005   84    3.15000   -12.17000  
2005   85    0.92000   -12.64000  
2005   86   -1.49000   -12.30000  
2005   87   -6.69000   -14.48000  
2005   88   -2.31000   -15.67000  
2005   89   -1.39000   -15.39000  
2005   90   -7.85000   -18.01000  
2005   91   -2.96000   -16.57000  
2005   92    0.07000   -17.19000  
2005   93   -0.71000   -12.09000  
2005   94    0.40000   -11.39000  
2005   95    6.70000   -12.18000  
2005   96   12.57000   -11.56000  
2005   97    2.29000    -7.22000  
2005   98    6.33000    -6.66000  
2005   99    4.10000    -8.02000  
2005  100    2.14000    -8.52000  
2005  101   -1.41000   -13.24000  
2005  102    3.00000   -13.17000  
2005  103    2.51000   -10.72000  
2005  104    3.57000    -5.98000  
2005  105    6.28000    -6.98000  
2005  106    8.68000    -6.61000  
2005  107    9.26000    -2.16000  
2005  108    5.07000    -5.42000  
2005  109    4.01000   -10.26000  
2005  110   -5.90000   -11.33000  
2005  111   -5.75000   -13.90000  
2005  112   -2.71000   -13.66000  
2005  113    4.64000   -11.66000  
2005  114    6.90000    -8.52000  
2005  115    8.23000    -5.87000  
2005  116    3.54000    -5.34000  
2005  117    8.67000    -4.44000  
2005  118    7.54000    -3.26000  
2005  119    6.81000    -3.98000  
2005  120   10.95000    -3.45000  
2005  121    8.01000    -5.58000  
2005  122    5.17000    -8.26000  
2005  123    6.73000    -6.21000  
2005  124   11.88000    -3.89000  
2005  125   13.41000    -0.66000  
2005  126    3.46000    -4.20000  
2005  127    4.92000    -4.18000  
2005  128    2.20000    -6.60000  
2005  129    5.96000    -6.94000  
2005  130    9.41000    -6.83000  
2005  131    9.97000    -5.00000  
2005  132   10.09000    -2.34000  
2005  133    8.78000    -0.83000  
2005  134    9.63000     0.06000  
2005  135   11.17000    -0.15000  
2005  136   12.30000     0.08000  
2005  137    9.53000    -3.70000  
2005  138   10.83000    -3.37000  
2005  139   12.09000    -2.17000  
2005  140   11.65000     0.62000  
2005  141    3.58000    -3.50000  
2005  142    5.91000    -3.10000  
2005  143   11.24000    -0.31000  
2005  144   11.15000    -0.01000  
2005  145   12.76000     0.41000  
2005  146    4.31000    -1.71000  
2005  147   11.05000    -3.08000  
2005  148   10.91000    -1.93000  
2005  149   10.15000    -4.59000  
2005  150   12.20000    -1.21000  
2005  151   11.42000     0.64000  
2005  152   13.11000     0.48000  
2005  153   14.36000     0.56000  
2005  154   15.52000     0.45000  
2005  155   13.87000     1.45000  
2005  156    5.88000    -0.05000  
2005  157   10.06000     2.11000  
2005  158   10.66000     2.05000  
2005  159   13.18000     1.86000  
2005  160   14.43000     4.40000  
2005  161   12.63000     2.54000  
2005  162   15.45000     1.03000  
2005  163   10.44000    -0.61000  
2005  164   11.03000     1.18000  
2005  165   10.99000     0.10000  
2005  166   11.49000     1.34000  
2005  167   13.92000     0.59000  
2005  168   14.09000     2.81000  
2005  169   11.86000    -0.08000  
2005  170    6.46000    -2.17000  
2005  171   13.14000     1.28000  
2005  172    6.72000    -2.91000  
2005  173   11.32000    -0.72000  
2005  174   12.71000     0.37000  
2005  175   13.53000     4.54000  
2005  176   14.11000     3.33000  
2005  177   12.80000     2.45000  
2005  178   14.19000     2.84000  
2005  179    9.11000    -0.10000  
2005  180   14.32000     3.11000  
2005  181   14.66000     1.95000  
2005  182   16.61000     5.18000  
2005  183   15.34000     2.93000  
2005  184    6.45000     2.11000  
2005  185   12.58000    -1.07000  
2005  186   15.39000     2.39000  
2005  187   16.26000     2.54000  
2005  188   17.78000     4.17000  
2005  189   13.66000     3.45000  
2005  190   11.69000     0.78000  
2005  191   11.26000     0.88000  
2005  192   11.42000     1.20000  
2005  193    9.02000    -2.38000  
2005  194   10.92000    -0.18000  
2005  195   11.01000     1.38000  
2005  196   13.51000     4.30000  
2005  197    7.73000    -0.36000  
2005  198   12.41000     2.47000  
2005  199   14.01000     0.65000  
2005  200   16.04000     0.56000  
2005  201   13.55000     5.38000  
2005  202   12.40000     1.43000  
2005  203   16.12000     5.23000  
2005  204   15.34000     3.52000  
2005  205   15.02000     5.46000  
2005  206   13.62000     3.82000  
2005  207   13.96000     5.88000  
2005  208   15.07000     5.73000  
2005  209   12.41000     4.60000  
2005  210    9.87000     2.88000  
2005  211    7.95000     1.60000  
2005  212    9.09000     1.05000  
2005  213   11.93000     2.41000  
2005  214   14.78000     3.74000  
2005  215   15.60000     5.78000  
2005  216   16.78000     4.98000  
2005  217   18.00000     5.76000  
2005  218   14.57000     3.48000  
2005  219    4.04000     2.03000  
2005  220   12.57000    -1.06000  
2005  221   13.81000    -1.38000  
2005  222   10.98000     1.56000  
2005  223    8.50000    -0.83000  
2005  224   11.37000    -2.18000  
2005  225   13.50000     0.23000  
2005  226   11.62000     1.01000  
2005  227    8.57000    -0.13000  
2005  228   13.09000     0.88000  
2005  229   15.01000     0.57000  
2005  230   16.00000     2.61000  
2005  231    9.23000     0.68000  
2005  232    9.61000    -3.58000  
2005  233   11.82000    -0.89000  
2005  234   12.86000     0.44000  
2005  235   10.98000     1.03000  
2005  236   12.76000     0.49000  
2005  237   11.09000    -0.28000  
2005  238   11.38000    -1.04000  
2005  239   12.61000     0.08000  
2005  240    5.14000    -4.58000  
2005  241    5.92000    -5.42000  
2005  242   10.05000    -5.38000  
2005  243   12.83000    -4.58000  
2005  244    9.47000    -1.83000  
2005  245    6.80000    -2.49000  
2005  246    8.34000    -2.05000  
2005  247   10.30000    -5.41000  
2005  248   10.15000    -2.70000  
2005  249   10.42000    -0.19000  
2005  250    9.72000    -2.29000  
2005  251    9.59000    -2.36000  
2005  252    8.02000    -6.29000  
2005  253   11.04000    -5.93000  
2005  254   12.63000    -4.76000  
2005  255   12.06000    -3.72000  
2005  256   11.07000    -4.45000  
2005  257   11.85000    -3.79000  
2005  258   11.40000    -3.21000  
2005  259   11.73000    -3.65000  
2005  260    7.83000    -6.80000  
2005  261   13.37000    -6.58000  
2005  262   14.33000    -1.38000  
2005  263    9.88000    -0.14000  
2005  264    5.30000    -0.74000  
2005  265    4.91000    -0.65000  
2005  266    6.31000     0.97000  
2005  267    5.99000    -0.86000  
2005  268    3.96000    -1.17000  
2005  269    0.89000    -2.24000  
2005  270    5.52000    -3.93000  
2005  271    9.37000    -4.87000  
2005  272   10.03000    -4.86000  
2005  273   10.89000    -4.58000  
2005  274   11.77000    -5.28000  
2005  275   10.49000    -4.20000  
2005  276    4.20000    -4.38000  
2005  277    4.04000    -6.42000  
2005  278    5.98000    -6.85000  
2005  279    3.60000    -7.26000  
2005  280    3.14000    -4.99000  
2005  281    2.00000    -8.11000  
2005  282    3.01000    -7.95000  
2005  283    3.72000    -9.04000  
2005  284    4.67000    -8.80000  
2005  285    5.60000    -7.46000  
2005  286    4.95000    -7.41000  
2005  287    6.43000    -7.52000  
2005  288    7.75000    -8.05000  
2005  289    7.42000    -7.65000  
2005  290    0.75000    -9.05000  
2005  291    4.32000    -9.47000  
2005  292    5.42000   -10.28000  
2005  293    6.84000   -10.55000  
2005  294   -4.38000   -15.07000  
2005  295   -4.97000   -14.18000  
2005  296   -1.98000   -15.81000  
2005  297   -0.71000   -16.28000  
2005  298   -2.23000   -16.03000  
2005  299    0.89000   -17.08000  
2005  300   -0.30000   -15.81000  
2005  301    2.96000   -11.15000  
2005  302    1.99000   -11.41000  
2005  303    1.49000   -12.18000  
2005  304    0.78000   -16.09000  
2005  305    1.69000   -17.03000  
2005  306    0.34000   -13.92000  
2005  307    0.68000   -14.32000  
2005  308   -1.06000   -13.77000  
2005  309   -3.55000   -14.20000  
2005  310   -0.94000   -14.65000  
2005  311   -0.94000   -11.70000  
2005  312   -1.03000   -12.94000  
2005  313    3.19000   -12.96000  
2005  314   -0.11000   -13.42000  
2005  315    1.42000   -12.74000  
2005  316   -5.04000   -15.28000  
2005  317   -5.09000   -17.14000  
2005  318   -4.67000   -18.84000  
2005  319   -4.92000   -19.57000  
2005  320   -8.90000   -20.47000  
2005  321   -8.93000   -22.04000  
2005  322   -6.90000   -22.74000  
2005  323   -5.67000   -23.16000  
2005  324   -4.75000   -22.01000  
2005  325   -6.77000   -21.19000  
2005  326   -8.03000   -19.55000  
2005  327   -7.50000   -20.55000  
2005  328   -7.43000   -20.65000  
2005  329   -7.24000   -19.07000  
2005  330   -5.07000   -22.77000  
2005  331   -5.89000   -22.91000  
2005  332   -6.49000   -22.20000  
2005  333   -6.84000   -22.84000  
2005  334   -6.03000   -20.60000  
2005  335   -4.97000   -21.85000  
2005  336   -7.76000   -20.17000  
2005  337  -17.04000   -27.05000  
2005  338  -12.90000   -28.24000  
2005  339   -9.88000   -26.64000  
2005  340  -10.50000   -20.04000  
2005  341  -10.45000   -19.85000  
2005  342   -3.95000   -20.81000  
2005  343   -5.88000   -21.62000  
2005  344   -4.60000   -23.97000  
2005  345   -6.53000   -24.84000  
2005  346  -10.81000   -23.29000  
2005  347  -10.20000   -23.27000  
2005  348   -9.00000   -24.56000  
2005  349   -4.55000   -24.70000  
2005  350   -5.93000   -22.26000  
2005  351   -3.41000   -21.68000  
2005  352   -2.12000   -20.22000  
2005  353   -3.91000   -17.20000  
2005  354   -8.51000   -23.05000  
2005  355  -10.16000   -23.69000  
2005  356   -9.80000   -24.01000  
2005  357   -8.28000   -22.38000  
2005  358   -8.48000   -25.25000  
2005  359   -9.77000   -24.19000  
2005  360   -5.30000   -20.05000  
2005  361  -12.04000   -26.28000  
2005  362  -12.87000   -28.28000  
2005  363  -13.23000   -28.01000  
2005  364   -9.66000   -28.54000  
2005  365  -12.19000   -28.40000  
2006    1  -10.84000   -27.57000  
2006    2  -12.27000   -27.54000  
2006    3   -8.73000   -27.88000  
2006    4   -7.83000   -23.94000  
2006    5   -6.77000   -24.86000  
2006    6   -8.60000   -22.75000  
2006    7  -10.20000   -25.88000  
2006    8   -4.74000   -21.86000  
2006    9   -6.30000   -21.58000  
2006   10   -8.28000   -19.98000  
2006   11  -12.92000   -20.23000  
2006   12  -14.32000   -28.44000  
2006   13  -13.16000   -27.81000  
2006   14  -14.55000   -28.23000  
2006   15  -13.51000   -29.37000  
2006   16  -13.38000   -27.45000  
2006   17  -13.19000   -27.74000  
2006   18  -14.50000   -24.10000  
2006   19  -16.84000   -24.57000  
2006   20  -18.76000   -27.19000  
2006   21  -19.01000   -33.49000  
2006   22  -19.12000   -32.82000  
2006   23  -20.77000   -33.64000  
2006   24  -21.27000   -30.34000  
2006   25  -18.74000   -34.02000  
2006   26  -20.74000   -34.17000  
2006   27  -20.78000   -31.11000  
2006   28  -19.00000   -28.64000  
2006   29  -21.67000   -37.50000  
2006   30  -20.62000   -38.60000  
2006   31  -20.56000   -40.31000  
2006   32  -18.77000   -39.06000  
2006   33  -15.87000   -34.32000  
2006   34  -18.07000   -35.98000  
2006   35  -16.04000   -34.68000  
2006   36  -15.98000   -36.27000  
2006   37  -16.27000   -31.79000  
2006   38  -14.81000   -32.04000  
2006   39  -16.24000   -32.27000  
2006   40  -14.64000   -31.38000  
2006   41  -16.94000   -29.80000  
2006   42  -17.64000   -31.60000  
2006   43  -17.97000   -30.97000  
2006   44  -15.06000   -33.45000  
2006   45  -11.08000   -30.32000  
2006   46   -9.23000   -30.52000  
2006   47  -11.42000   -27.25000  
2006   48  -13.03000   -27.09000  
2006   49   -9.21000   -26.31000  
2006   50   -7.22000   -25.65000  
2006   51   -7.37000   -25.28000  
2006   52   -2.66000   -22.22000  
2006   53    1.39000   -23.21000  
2006   54   -2.50000   -18.45000  
2006   55  -10.66000   -21.96000  
2006   56  -10.90000   -23.52000  
2006   57   -8.53000   -22.88000  
2006   58   -9.04000   -20.69000  
2006   59   -4.51000   -20.35000  
2006   60   -4.63000   -20.20000  
2006   61   -1.60000   -21.14000  
2006   62   -2.09000   -20.47000  
2006   63   -0.20000   -17.19000  
2006   64   -0.16000   -12.85000  
2006   65   -3.10000   -14.24000  
2006   66   -2.86000   -16.93000  
2006   67   -0.58000   -16.36000  
2006   68    0.24000   -13.63000  
2006   69    0.56000   -14.05000  
2006   70   -0.90000   -15.35000  
2006   71   -1.46000   -16.88000  
2006   72    3.23000   -14.60000  
2006   73   -0.44000   -14.16000  
2006   74    1.47000   -14.71000  
2006   75    4.59000   -12.49000  
2006   76    2.59000   -10.35000  
2006   77    2.51000   -11.24000  
2006   78    1.20000   -12.76000  
2006   79   -3.82000   -14.80000  
2006   80   -2.07000   -15.29000  
2006   81   -0.72000   -15.41000  
2006   82    0.08000   -13.10000  
2006   83    0.36000   -13.14000  
2006   84    3.15000   -12.17000  
2006   85    0.92000   -12.64000  
2006   86   -1.49000   -12.30000  
2006   87   -6.69000   -14.48000  
2006   88   -2.31000   -15.67000  
2006   89   -1.39000   -15.39000  
2006   90   -7.85000   -18.01000  
2006   91   -2.96000   -16.57000  
2006   92    0.07000   -17.19000  
2006   93   -0.71000   -12.09000  
2006   94    0.40000   -11.39000  
2006   95    6.70000   -12.18000  
2006   96   12.57000   -11.56000  
2006   97    2.29000    -7.22000  
2006   98    6.33000    -6.66000  
2006   99    4.10000    -8.02000  
2006  100    2.14000    -8.52000  
2006  101   -1.41000   -13.24000  
2006  102    3.00000   -13.17000  
2006  103    2.51000   -10.72000  
2006  104    3.57000    -5.98000  
2006  105    6.28000    -6.98000  
2006  106    8.68000    -6.61000  
2006  107    9.26000    -2.16000  
2006  108    5.07000    -5.42000  
2006  109    4.01000   -10.26000  
2006  110   -5.90000   -11.33000  
2006  111   -5.75000   -13.90000  
2006  112   -2.71000   -13.66000  
2006  113    4.64000   -11.66000  
2006  114    6.90000    -8.52000  
2006  115    8.23000    -5.87000  
2006  116    3.54000    -5.34000  
2006  117    8.67000    -4.44000  
2006  118    7.54000    -3.26000  
2006  119    6.81000    -3.98000  
2006  120   10.95000    -3.45000  
2006  121    8.01000    -5.58000  
2006  122    5.17000    -8.26000  
2006  123    6.73000    -6.21000  
2006  124   11.88000    -3.89000  
2006  125   13.41000    -0.66000  
2006  126    3.46000    -4.20000  
2006  127    4.92000    -4.18000  
2006  128    2.20000    -6.60000  
2006  129    5.96000    -6.94000  
2006  130    9.41000    -6.83000  
2006  131    9.97000    -5.00000  
2006  132   10.09000    -2.34000  
2006  133    8.78000    -0.83000  
2006  134    9.63000     0.06000  
2006  135   11.17000    -0.15000  
2006  136   12.30000     0.08000  
2006  137    9.53000    -3.70000  
2006  138   10.83000    -3.37000  
2006  139   12.09000    -2.17000  
2006  140   11.65000     0.62000  
2006  141    3.58000    -3.50000  
2006  142    5.91000    -3.10000  
2006  143   11.24000    -0.31000  
2006  144   11.15000    -0.01000  
2006  145   12.76000     0.41000  
2006  146    4.31000    -1.71000  
2006  147   11.05000    -3.08000  
2006  148   10.91000    -1.93000  
2006  149   10.15000    -4.59000  
2006  150   12.20000    -1.21000  
2006  151   11.42000     0.64000  
2006  152   13.11000     0.48000  
2006  153   14.36000     0.56000  
2006  154   15.52000     0.45000  
2006  155   13.87000     1.45000  
2006  156    5.88000    -0.05000  
2006  157   10.06000     2.11000  
2006  158   10.66000     2.05000  
2006  159   13.18000     1.86000  
2006  160   14.43000     4.40000  
2006  161   12.63000     2.54000  
2006  162   15.45000     1.03000  
2006  163   10.44000    -0.61000  
2006  164   11.03000     1.18000  
2006  165   10.99000     0.10000  
2006  166   11.49000     1.34000  
2006  167   13.92000     0.59000  
2006  168   14.09000     2.81000  
2006  169   11.86000    -0.08000  
2006  170    6.46000    -2.17000  
2006  171   13.14000     1.28000  
2006  172    6.72000    -2.91000  
2006  173   11.32000    -0.72000  
2006  174   12.71000     0.37000  
2006  175   13.53000     4.54000  
2006  176   14.11000     3.33000  
2006  177   12.80000     2.45000  
2006  178   14.19000     2.84000  
2006  179    9.11000    -0.10000  
2006  180   14.32000     3.11000  
2006  181   14.66000     1.95000  
2006  182   16.61000     5.18000  
2006  183   15.34000     2.93000  
2006  184    6.45000     2.11000  
2006  185   12.58000    -1.07000  
2006  186   15.39000     2.39000  
2006  187   16.26000     2.54000  
2006  188   17.78000     4.17000  
2006  189   13.66000     3.45000  
2006  190   11.69000     0.78000  
2006  191   11.26000     0.88000  
2006  192   11.42000     1.20000  
2006  193    9.02000    -2.38000  
2006  194   10.92000    -0.18000  
2006  195   11.01000     1.38000  
2006  196   13.51000     4.30000  
2006  197    7.73000    -0.36000  
2006  198   12.41000     2.47000  
2006  199   14.01000     0.65000  
2006  200   16.04000     0.56000  
2006  201   13.55000     5.38000  
2006  202   12.40000     1.43000  
2006  203   16.12000     5.23000  
2006  204   15.34000     3.52000  
2006  205   15.02000     5.46000  
2006  206   13.62000     3.82000  
2006  207   13.96000     5.88000  
2006  208   15.07000     5.73000  
2006  209   12.41000     4.60000  
2006  210    9.87000     2.88000  
2006  211    7.95000     1.60000  
2006  212    9.09000     1.05000  
2006  213   11.93000     2.41000  
2006  214   14.78000     3.74000  
2006  215   15.60000     5.78000  
2006  216   16.78000     4.98000  
2006  217   18.00000     5.76000  
2006  218   14.57000     3.48000  
2006  219    4.04000     2.03000  
2006  220   12.57000    -1.06000  
2006  221   13.81000    -1.38000  
2006  222   10.98000     1.56000  
2006  223    8.50000    -0.83000  
2006  224   11.37000    -2.18000  
2006  225   13.50000     0.23000  
2006  226   11.62000     1.01000  
2006  227    8.57000    -0.13000  
2006  228   13.09000     0.88000  
2006  229   15.01000     0.57000  
2006  230   16.00000     2.61000  
2006  231    9.23000     0.68000  
2006  232    9.61000    -3.58000  
2006  233   11.82000    -0.89000  
2006  234   12.86000     0.44000  
2006  235   10.98000     1.03000  
2006  236   12.76000     0.49000  
2006  237   11.09000    -0.28000  
2006  238   11.38000    -1.04000  
2006  239   12.61000     0.08000  
2006  240    5.14000    -4.58000  
2006  241    5.92000    -5.42000  
2006  242   10.05000    -5.38000  
2006  243   12.83000    -4.58000  
2006  244    9.47000    -1.83000  
2006  245    6.80000    -2.49000  
2006  246    8.34000    -2.05000  
2006  247   10.30000    -5.41000  
2006  248   10.15000    -2.70000  
2006  249   10.42000    -0.19000  
2006  250    9.72000    -2.29000  
2006  251    9.59000    -2.36000  
2006  252    8.02000    -6.29000  
2006  253   11.04000    -5.93000  
2006  254   12.63000    -4.76000  
2006  255   12.06000    -3.72000  
2006  256   11.07000    -4.45000  
2006  257   11.85000    -3.79000  
2006  258   11.40000    -3.21000  
2006  259   11.73000    -3.65000  
2006  260    7.83000    -6.80000  
2006  261   13.37000    -6.58000  
2006  262   14.33000    -1.38000  
2006  263    9.88000    -0.14000  
2006  264    5.30000    -0.74000  
2006  265    4.91000    -0.65000  
2006  266    6.31000     0.97000  
2006  267    5.99000    -0.86000  
2006  268    3.96000    -1.17000  
2006  269    0.89000    -2.24000  
2006  270    5.52000    -3.93000  
2006  271    9.37000    -4.87000  
2006  272   10.03000    -4.86000  
2006  273   10.89000    -4.58000  
2006  274   11.77000    -5.28000  
2006  275   10.49000    -4.20000  
2006  276    4.20000    -4.38000  
2006  277    4.04000    -6.42000  
2006  278    5.98000    -6.85000  
2006  279    3.60000    -7.26000  
2006  280    3.14000    -4.99000  
2006  281    2.00000    -8.11000  
2006  282    3.01000    -7.95000  
2006  283    3.72000    -9.04000  
2006  284    4.67000    -8.80000  
2006  285    5.60000    -7.46000  
2006  286    4.95000    -7.41000  
2006  287    6.43000    -7.52000  
2006  288    7.75000    -8.05000  
2006  289    7.42000    -7.65000  
2006  290    0.75000    -9.05000  
2006  291    4.32000    -9.47000  
2006  292    5.42000   -10.28000  
2006  293    6.84000   -10.55000  
2006  294   -4.38000   -15.07000  
2006  295   -4.97000   -14.18000  
2006  296   -1.98000   -15.81000  
2006  297   -0.71000   -16.28000  
2006  298   -2.23000   -16.03000  
2006  299    0.89000   -17.08000  
2006  300   -0.30000   -15.81000  
2006  301    2.96000   -11.15000  
2006  302    1.99000   -11.41000  
2006  303    1.49000   -12.18000  
2006  304    0.78000   -16.09000  
2006  305    1.69000   -17.03000  
2006  306    0.34000   -13.92000  
2006  307    0.68000   -14.32000  
2006  308   -1.06000   -13.77000  
2006  309   -3.55000   -14.20000  
2006  310   -0.94000   -14.65000  
2006  311   -0.94000   -11.70000  
2006  312   -1.03000   -12.94000  
2006  313    3.19000   -12.96000  
2006  314   -0.11000   -13.42000  
2006  315    1.42000   -12.74000  
2006  316   -5.04000   -15.28000  
2006  317   -5.09000   -17.14000  
2006  318   -4.67000   -18.84000  
2006  319   -4.92000   -19.57000  
2006  320   -8.90000   -20.47000  
2006  321   -8.93000   -22.04000  
2006  322   -6.90000   -22.74000  
2006  323   -5.67000   -23.16000  
2006  324   -4.75000   -22.01000  
2006  325   -6.77000   -21.19000  
2006  326   -8.03000   -19.55000  
2006  327   -7.50000   -20.55000  
2006  328   -7.43000   -20.65000  
2006  329   -7.24000   -19.07000  
2006  330   -5.07000   -22.77000  
2006  331   -5.89000   -22.91000  
2006  332   -6.49000   -22.20000  
2006  333   -6.84000   -22.84000  
2006  334   -6.03000   -20.60000  
2006  335   -4.97000   -21.85000  
2006  336   -7.76000   -20.17000  
2006  337  -17.04000   -27.05000  
2006  338  -12.90000   -28.24000  
2006  339   -9.88000   -26.64000  
2006  340  -10.50000   -20.04000  
2006  341  -10.45000   -19.85000  
2006  342   -3.95000   -20.81000  
2006  343   -5.88000   -21.62000  
2006  344   -4.60000   -23.97000  
2006  345   -6.53000   -24.84000  
2006  346  -10.81000   -23.29000  
2006  347  -10.20000   -23.27000  
2006  348   -9.00000   -24.56000  
2006  349   -4.55000   -24.70000  
2006  350   -5.93000   -22.26000  
2006  351   -3.41000   -21.68000  
2006  352   -2.12000   -20.22000  
2006  353   -3.91000   -17.20000  
2006  354   -8.51000   -23.05000  
2006  355  -10.16000   -23.69000  
2006  356   -9.80000   -24.01000  
2006  357   -8.28000   -22.38000  
2006  358   -8.48000   -25.25000  
2006  359   -9.77000   -24.19000  
2006  360   -5.30000   -20.05000  
2006  361  -12.04000   -26.28000  
2006  362  -12.87000   -28.28000  
2006  363  -13.23000   -28.01000  
2006  364   -9.66000   -28.54000  
2006  365  -12.19000   -28.40000  
2007    1  -10.84000   -27.57000  
2007    2  -12.27000   -27.54000  
2007    3   -8.73000   -27.88000  
2007    4   -7.83000   -23.94000  
2007    5   -6.77000   -24.86000  
2007    6   -8.60000   -22.75000  
2007    7  -10.20000   -25.88000  
2007    8   -4.74000   -21.86000  
2007    9   -6.30000   -21.58000  
2007   10   -8.28000   -19.98000  
2007   11  -12.92000   -20.23000  
2007   12  -14.32000   -28.44000  
2007   13  -13.16000   -27.81000  
2007   14  -14.55000   -28.23000  
2007   15  -13.51000   -29.37000  
2007   16  -13.38000   -27.45000  
2007   17  -13.19000   -27.74000  
2007   18  -14.50000   -24.10000  
2007   19  -16.84000   -24.57000  
2007   20  -18.76000   -27.19000  
2007   21  -19.01000   -33.49000  
2007   22  -19.12000   -32.82000  
2007   23  -20.77000   -33.64000  
2007   24  -21.27000   -30.34000  
2007   25  -18.74000   -34.02000  
2007   26  -20.74000   -34.17000  
2007   27  -20.78000   -31.11000  
2007   28  -19.00000   -28.64000  
2007   29  -21.67000   -37.50000  
2007   30  -20.62000   -38.60000  
2007   31  -20.56000   -40.31000  
2007   32  -18.77000   -39.06000  
2007   33  -15.87000   -34.32000  
2007   34  -18.07000   -35.98000  
2007   35  -16.04000   -34.68000  
2007   36  -15.98000   -36.27000  
2007   37  -16.27000   -31.79000  
2007   38  -14.81000   -32.04000  
2007   39  -16.24000   -32.27000  
2007   40  -14.64000   -31.38000  
2007   41  -16.94000   -29.80000  
2007   42  -17.64000   -31.60000  
2007   43  -17.97000   -30.97000  
2007   44  -15.06000   -33.45000  
2007   45  -11.08000   -30.32000  
2007   46   -9.23000   -30.52000  
2007   47  -11.42000   -27.25000  
2007   48  -13.03000   -27.09000  
2007   49   -9.21000   -26.31000  
2007   50   -7.22000   -25.65000  
2007   51   -7.37000   -25.28000  
2007   52   -2.66000   -22.22000  
2007   53    1.39000   -23.21000  
2007   54   -2.50000   -18.45000  
2007   55  -10.66000   -21.96000  
2007   56  -10.90000   -23.52000  
2007   57   -8.53000   -22.88000  
2007   58   -9.04000   -20.69000  
2007   59   -4.51000   -20.35000  
2007   60   -4.63000   -20.20000  
2007   61   -1.60000   -21.14000  
2007   62   -2.09000   -20.47000  
2007   63   -0.20000   -17.19000  
2007   64   -0.16000   -12.85000  
2007   65   -3.10000   -14.24000  
2007   66   -2.86000   -16.93000  
2007   67   -0.58000   -16.36000  
2007   68    0.24000   -13.63000  
2007   69    0.56000   -14.05000  
2007   70   -0.90000   -15.35000  
2007   71   -1.46000   -16.88000  
2007   72    3.23000   -14.60000  
2007   73   -0.44000   -14.16000  
2007   74    1.47000   -14.71000  
2007   75    4.59000   -12.49000  
2007   76    2.59000   -10.35000  
2007   77    2.51000   -11.24000  
2007   78    1.20000   -12.76000  
2007   79   -3.82000   -14.80000  
2007   80   -2.07000   -15.29000  
2007   81   -0.72000   -15.41000  
2007   82    0.08000   -13.10000  
2007   83    0.36000   -13.14000  
2007   84    3.15000   -12.17000  
2007   85    0.92000   -12.64000  
2007   86   -1.49000   -12.30000  
2007   87   -6.69000   -14.48000  
2007   88   -2.31000   -15.67000  
2007   89   -1.39000   -15.39000  
2007   90   -7.85000   -18.01000  
2007   91   -2.96000   -16.57000  
2007   92    0.07000   -17.19000  
2007   93   -0.71000   -12.09000  
2007   94    0.40000   -11.39000  
2007   95    6.70000   -12.18000  
2007   96   12.57000   -11.56000  
2007   97    2.29000    -7.22000  
2007   98    6.33000    -6.66000  