161151tmp.tem: Temperature data - file written by SWAT+ editor 2025-11-04 13:23:50.403828
nbyr     tstep       lat       lon      elev
  14         0    40.031    97.531  1700.000
2005    1   -7.06000   -17.03000  
2005    2   -5.07000   -17.65000  
2005    3   -5.03000   -16.74000  
2005    4   -0.19000   -17.05000  
2005    5   -2.79000   -15.77000  
2005    6   -0.78000   -14.99000  
2005    7   -4.42000   -14.67000  
2005    8    1.33000   -10.53000  
2005    9   -3.42000   -11.10000  
2005   10   -6.10000   -12.50000  
2005   11   -8.19000   -12.23000  
2005   12   -7.94000   -16.40000  
2005   13   -4.99000   -17.03000  
2005   14   -5.69000   -16.70000  
2005   15   -7.66000   -15.01000  
2005   16   -5.02000   -14.92000  
2005   17   -7.30000   -13.80000  
2005   18  -10.46000   -14.85000  
2005   19  -11.58000   -17.88000  
2005   20  -12.43000   -22.74000  
2005   21  -14.07000   -25.51000  
2005   22  -13.80000   -23.81000  
2005   23  -18.38000   -26.24000  
2005   24  -15.84000   -24.42000  
2005   25  -18.60000   -26.01000  
2005   26  -17.14000   -26.97000  
2005   27  -16.05000   -23.57000  
2005   28  -15.10000   -23.34000  
2005   29  -11.94000   -26.55000  
2005   30  -13.23000   -27.89000  
2005   31  -11.16000   -27.25000  
2005   32  -10.44000   -27.05000  
2005   33   -8.94000   -23.30000  
2005   34  -12.11000   -23.00000  
2005   35   -8.76000   -23.40000  
2005   36   -7.03000   -22.75000  
2005   37  -10.12000   -23.15000  
2005   38  -12.22000   -21.86000  
2005   39   -8.78000   -22.42000  
2005   40   -6.83000   -22.71000  
2005   41   -9.55000   -20.18000  
2005   42  -10.41000   -20.07000  
2005   43   -8.64000   -20.02000  
2005   44   -3.52000   -19.82000  
2005   45   -1.07000   -18.40000  
2005   46   -5.28000   -14.75000  
2005   47   -4.59000   -14.83000  
2005   48   -3.06000   -14.53000  
2005   49    2.36000   -14.19000  
2005   50    4.47000   -11.61000  
2005   51    4.50000   -11.76000  
2005   52    8.22000    -8.78000  
2005   53    8.41000    -8.96000  
2005   54   -0.49000    -6.47000  
2005   55   -1.52000   -11.13000  
2005   56   -1.06000   -11.55000  
2005   57    1.13000   -10.80000  
2005   58    2.70000    -7.70000  
2005   59    9.26000    -5.64000  
2005   60    5.90000    -6.92000  
2005   61    9.96000    -4.27000  
2005   62    8.10000    -5.40000  
2005   63    9.56000    -3.55000  
2005   64    8.49000    -2.37000  
2005   65    8.42000    -1.42000  
2005   66    8.42000    -3.97000  
2005   67   10.42000    -3.56000  
2005   68   12.00000    -0.62000  
2005   69   12.11000    -0.86000  
2005   70   12.65000    -6.43000  
2005   71    4.88000    -7.55000  
2005   72   14.80000    -3.83000  
2005   73    7.06000    -1.60000  
2005   74   14.41000    -3.35000  
2005   75   17.86000     0.35000  
2005   76   16.73000     3.42000  
2005   77   11.17000     0.31000  
2005   78    8.63000     0.28000  
2005   79    7.18000    -2.70000  
2005   80    9.32000    -3.24000  
2005   81   10.98000    -2.51000  
2005   82   13.38000    -1.34000  
2005   83   14.62000     0.45000  
2005   84   16.45000     0.78000  
2005   85   11.54000     0.17000  
2005   86    4.51000    -3.07000  
2005   87    6.28000    -8.67000  
2005   88    8.69000    -2.03000  
2005   89    4.48000    -5.21000  
2005   90    2.83000    -6.18000  
2005   91    8.03000    -5.40000  
2005   92   10.55000    -5.20000  
2005   93   11.39000    -1.04000  
2005   94   13.06000     0.50000  
2005   95   18.51000     1.30000  
2005   96   20.79000     4.81000  
2005   97   15.50000     3.56000  
2005   98   18.34000     4.78000  
2005   99   15.17000     1.69000  
2005  100    9.28000     0.30000  
2005  101   11.10000    -1.61000  
2005  102   12.83000    -0.09000  
2005  103   14.89000     2.87000  
2005  104   16.04000     3.37000  
2005  105   19.80000     5.24000  
2005  106   20.72000     6.89000  
2005  107   22.09000     9.61000  
2005  108   20.34000     2.08000  
2005  109   10.36000    -3.13000  
2005  110    2.76000    -2.86000  
2005  111    6.56000    -5.41000  
2005  112    9.10000    -2.41000  
2005  113   16.80000     1.18000  
2005  114   19.77000     2.27000  
2005  115   20.86000     6.85000  
2005  116   18.20000     6.30000  
2005  117   21.54000     8.44000  
2005  118   22.37000     7.62000  
2005  119   15.77000     7.16000  
2005  120   24.63000     8.98000  
2005  121   15.76000     6.04000  
2005  122   12.10000     1.10000  
2005  123   18.95000     4.64000  
2005  124   21.87000     8.76000  
2005  125   25.65000    10.48000  
2005  126   16.87000     8.09000  
2005  127   18.74000     6.14000  
2005  128   15.61000     4.56000  
2005  129   17.85000     5.36000  
2005  130   22.17000     5.31000  
2005  131   22.87000     8.88000  
2005  132   22.83000    10.23000  
2005  133   22.88000    10.93000  
2005  134   26.35000    12.85000  
2005  135   27.72000    13.15000  
2005  136   26.55000    13.81000  
2005  137   23.96000    10.73000  
2005  138   22.95000     8.43000  
2005  139   24.97000    10.24000  
2005  140   23.74000    13.83000  
2005  141   21.36000    12.50000  
2005  142   21.68000    11.32000  
2005  143   26.59000    14.42000  
2005  144   27.24000    12.88000  
2005  145   28.01000    12.79000  
2005  146   20.98000    10.53000  
2005  147   25.11000    10.80000  
2005  148   23.64000    12.84000  
2005  149   23.82000    10.86000  
2005  150   25.45000    11.87000  
2005  151   27.40000    16.06000  
2005  152   28.14000    15.41000  
2005  153   29.79000    16.63000  
2005  154   31.01000    16.83000  
2005  155   29.03000    14.17000  
2005  156   21.36000    12.11000  
2005  157   23.78000    14.57000  
2005  158   26.06000    14.07000  
2005  159   29.52000    15.27000  
2005  160   31.15000    18.39000  
2005  161   29.81000    16.37000  
2005  162   31.52000    15.18000  
2005  163   22.71000    12.48000  
2005  164   25.16000     9.86000  
2005  165   23.94000    11.09000  
2005  166   27.44000    13.29000  
2005  167   27.97000    15.97000  
2005  168   27.82000    15.97000  
2005  169   25.42000    13.36000  
2005  170   19.15000    10.14000  
2005  171   25.73000    15.06000  
2005  172   19.92000     9.84000  
2005  173   24.62000    10.07000  
2005  174   26.25000    13.38000  
2005  175   28.46000    18.01000  
2005  176   28.95000    17.16000  
2005  177   30.05000    15.63000  
2005  178   27.67000    15.07000  
2005  179   23.40000    12.91000  
2005  180   27.48000    15.40000  
2005  181   30.31000    19.34000  
2005  182   31.49000    18.83000  
2005  183   28.98000    17.10000  
2005  184   23.39000    13.17000  
2005  185   29.38000    15.24000  
2005  186   30.93000    15.87000  
2005  187   32.21000    18.05000  
2005  188   30.75000    21.02000  
2005  189   28.19000    16.12000  
2005  190   17.88000    12.12000  
2005  191   24.37000    14.25000  
2005  192   26.99000    14.48000  
2005  193   23.02000    10.69000  
2005  194   26.63000    12.91000  
2005  195   27.44000    14.71000  
2005  196   30.07000    18.37000  
2005  197   23.24000    14.79000  
2005  198   28.81000    14.85000  
2005  199   28.91000    15.05000  
2005  200   29.89000    16.15000  
2005  201   29.40000    19.52000  
2005  202   28.97000    17.02000  
2005  203   30.48000    20.08000  
2005  204   28.99000    16.72000  
2005  205   29.73000    19.36000  
2005  206   25.25000    17.95000  
2005  207   28.59000    17.14000  
2005  208   24.84000    15.46000  
2005  209   25.76000    16.44000  
2005  210   18.14000    12.89000  
2005  211   19.47000    13.51000  
2005  212   23.68000    14.15000  
2005  213   27.54000    14.78000  
2005  214   29.90000    17.19000  
2005  215   31.40000    18.98000  
2005  216   32.58000    18.87000  
2005  217   32.18000    16.98000  
2005  218   24.34000    11.64000  
2005  219   16.10000    11.56000  
2005  220   24.89000    12.79000  
2005  221   24.89000    14.49000  
2005  222   25.41000    13.05000  
2005  223   24.88000    11.69000  
2005  224   25.47000    13.83000  
2005  225   26.46000    15.18000  
2005  226   25.89000    16.72000  
2005  227   23.88000    12.86000  
2005  228   27.46000    14.52000  
2005  229   28.95000    15.62000  
2005  230   29.54000    17.80000  
2005  231   20.81000    11.99000  
2005  232   18.13000     9.08000  
2005  233   24.61000    10.97000  
2005  234   25.70000    12.94000  
2005  235   25.38000    13.17000  
2005  236   26.80000    13.59000  
2005  237   25.07000    11.55000  
2005  238   26.19000    13.41000  
2005  239   27.74000    12.59000  
2005  240   14.63000     7.47000  
2005  241   19.37000     6.42000  
2005  242   23.77000    10.19000  
2005  243   25.61000    11.20000  
2005  244   21.05000    11.26000  
2005  245   23.83000    11.75000  
2005  246   24.33000    11.08000  
2005  247   23.78000     9.28000  
2005  248   23.45000    11.61000  
2005  249   23.66000    12.50000  
2005  250   16.92000     7.74000  
2005  251   19.29000     7.18000  
2005  252   20.29000     7.37000  
2005  253   22.70000     8.64000  
2005  254   25.05000    10.09000  
2005  255   23.73000    10.77000  
2005  256   24.80000    10.42000  
2005  257   24.05000    11.24000  
2005  258   24.11000    11.42000  
2005  259   25.49000    10.82000  
2005  260   24.79000    11.05000  
2005  261   27.03000    13.36000  
2005  262   26.08000    15.58000  
2005  263   22.72000     9.66000  
2005  264   14.70000     9.57000  
2005  265   16.06000     9.25000  
2005  266   12.82000     8.15000  
2005  267    8.61000     6.19000  
2005  268   10.42000     7.39000  
2005  269    9.57000     6.14000  
2005  270   17.01000     6.34000  
2005  271   22.00000     5.49000  
2005  272   23.29000     8.29000  
2005  273   24.08000     8.46000  
2005  274   24.15000     8.48000  
2005  275   21.21000    10.36000  
2005  276   16.59000     8.21000  
2005  277   17.18000     6.98000  
2005  278   18.68000     5.93000  
2005  279   14.94000     6.01000  
2005  280   14.66000     5.26000  
2005  281   16.32000     3.84000  
2005  282   13.52000     3.70000  
2005  283   14.65000     2.73000  
2005  284   16.35000     3.56000  
2005  285   17.89000     5.03000  
2005  286   15.04000     5.16000  
2005  287   18.51000     4.61000  
2005  288   16.49000     4.22000  
2005  289   16.19000     6.85000  
2005  290   15.13000     2.82000  
2005  291   16.16000     2.49000  
2005  292   17.58000     3.00000  
2005  293   17.98000     2.69000  
2005  294    7.57000    -2.05000  
2005  295    6.77000    -3.29000  
2005  296    8.83000    -4.31000  
2005  297   11.21000    -4.41000  
2005  298   10.48000    -0.80000  
2005  299   11.80000    -3.30000  
2005  300    8.89000    -3.08000  
2005  301   10.38000    -1.24000  
2005  302   11.26000    -2.07000  
2005  303    9.72000    -0.83000  
2005  304   10.98000    -2.21000  
2005  305   11.89000    -2.94000  
2005  306   12.40000    -1.61000  
2005  307   11.62000    -2.42000  
2005  308    8.66000    -1.81000  
2005  309    8.29000    -2.84000  
2005  310   11.13000    -4.38000  
2005  311    9.21000     0.83000  
2005  312   10.98000     1.03000  
2005  313   11.31000    -1.09000  
2005  314    5.71000    -1.83000  
2005  315    6.36000    -3.65000  
2005  316    0.50000    -6.00000  
2005  317    2.95000    -6.35000  
2005  318    2.21000    -5.66000  
2005  319    3.81000    -6.69000  
2005  320    0.32000    -8.39000  
2005  321   -0.28000    -8.09000  
2005  322    1.21000    -9.51000  
2005  323    2.23000    -8.87000  
2005  324    3.69000    -8.63000  
2005  325    1.95000    -6.93000  
2005  326    1.46000    -4.84000  
2005  327    3.16000    -7.99000  
2005  328    3.87000    -9.66000  
2005  329    2.15000    -7.54000  
2005  330    3.28000    -8.22000  
2005  331    2.52000   -10.07000  
2005  332    5.02000    -8.10000  
2005  333    6.33000    -8.25000  
2005  334    3.71000    -8.05000  
2005  335    5.67000    -6.19000  
2005  336    1.08000   -13.85000  
2005  337  -11.42000   -21.61000  
2005  338   -9.81000   -24.16000  
2005  339   -3.57000   -14.13000  
2005  340   -0.88000    -6.52000  
2005  341    1.64000    -4.94000  
2005  342    5.92000    -5.75000  
2005  343    5.04000    -8.45000  
2005  344    3.76000    -9.62000  
2005  345    3.90000    -8.45000  
2005  346    0.45000   -10.27000  
2005  347   -1.31000   -10.28000  
2005  348    2.42000   -10.36000  
2005  349    3.80000    -9.60000  
2005  350    2.04000   -10.48000  
2005  351    2.90000   -10.90000  
2005  352    3.44000    -8.75000  
2005  353   -0.90000    -7.76000  
2005  354   -3.29000   -17.72000  
2005  355  -11.38000   -17.10000  
2005  356   -5.95000   -13.09000  
2005  357   -0.63000   -11.15000  
2005  358   -2.78000   -13.47000  
2005  359   -2.73000   -14.34000  
2005  360   -3.11000    -8.40000  
2005  361   -9.07000   -19.40000  
2005  362  -10.03000   -19.52000  
2005  363   -5.70000   -18.09000  
2005  364   -7.21000   -18.91000  
2005  365   -5.17000   -18.67000  
2006    1   -7.06000   -17.03000  
2006    2   -5.07000   -17.65000  
2006    3   -5.03000   -16.74000  
2006    4   -0.19000   -17.05000  
2006    5   -2.79000   -15.77000  
2006    6   -0.78000   -14.99000  
2006    7   -4.42000   -14.67000  
2006    8    1.33000   -10.53000  
2006    9   -3.42000   -11.10000  
2006   10   -6.10000   -12.50000  
2006   11   -8.19000   -12.23000  
2006   12   -7.94000   -16.40000  
2006   13   -4.99000   -17.03000  
2006   14   -5.69000   -16.70000  
2006   15   -7.66000   -15.01000  
2006   16   -5.02000   -14.92000  
2006   17   -7.30000   -13.80000  
2006   18  -10.46000   -14.85000  
2006   19  -11.58000   -17.88000  
2006   20  -12.43000   -22.74000  
2006   21  -14.07000   -25.51000  
2006   22  -13.80000   -23.81000  
2006   23  -18.38000   -26.24000  
2006   24  -15.84000   -24.42000  
2006   25  -18.60000   -26.01000  
2006   26  -17.14000   -26.97000  
2006   27  -16.05000   -23.57000  
2006   28  -15.10000   -23.34000  
2006   29  -11.94000   -26.55000  
2006   30  -13.23000   -27.89000  
2006   31  -11.16000   -27.25000  
2006   32  -10.44000   -27.05000  
2006   33   -8.94000   -23.30000  
2006   34  -12.11000   -23.00000  
2006   35   -8.76000   -23.40000  
2006   36   -7.03000   -22.75000  
2006   37  -10.12000   -23.15000  
2006   38  -12.22000   -21.86000  
2006   39   -8.78000   -22.42000  
2006   40   -6.83000   -22.71000  
2006   41   -9.55000   -20.18000  
2006   42  -10.41000   -20.07000  
2006   43   -8.64000   -20.02000  
2006   44   -3.52000   -19.82000  
2006   45   -1.07000   -18.40000  
2006   46   -5.28000   -14.75000  
2006   47   -4.59000   -14.83000  
2006   48   -3.06000   -14.53000  
2006   49    2.36000   -14.19000  
2006   50    4.47000   -11.61000  
2006   51    4.50000   -11.76000  
2006   52    8.22000    -8.78000  
2006   53    8.41000    -8.96000  
2006   54   -0.49000    -6.47000  
2006   55   -1.52000   -11.13000  
2006   56   -1.06000   -11.55000  
2006   57    1.13000   -10.80000  
2006   58    2.70000    -7.70000  
2006   59    9.26000    -5.64000  
2006   60    5.90000    -6.92000  
2006   61    9.96000    -4.27000  
2006   62    8.10000    -5.40000  
2006   63    9.56000    -3.55000  
2006   64    8.49000    -2.37000  
2006   65    8.42000    -1.42000  
2006   66    8.42000    -3.97000  
2006   67   10.42000    -3.56000  
2006   68   12.00000    -0.62000  
2006   69   12.11000    -0.86000  
2006   70   12.65000    -6.43000  
2006   71    4.88000    -7.55000  
2006   72   14.80000    -3.83000  
2006   73    7.06000    -1.60000  
2006   74   14.41000    -3.35000  
2006   75   17.86000     0.35000  
2006   76   16.73000     3.42000  
2006   77   11.17000     0.31000  
2006   78    8.63000     0.28000  
2006   79    7.18000    -2.70000  
2006   80    9.32000    -3.24000  
2006   81   10.98000    -2.51000  
2006   82   13.38000    -1.34000  
2006   83   14.62000     0.45000  
2006   84   16.45000     0.78000  
2006   85   11.54000     0.17000  
2006   86    4.51000    -3.07000  
2006   87    6.28000    -8.67000  
2006   88    8.69000    -2.03000  
2006   89    4.48000    -5.21000  
2006   90    2.83000    -6.18000  
2006   91    8.03000    -5.40000  
2006   92   10.55000    -5.20000  
2006   93   11.39000    -1.04000  
2006   94   13.06000     0.50000  
2006   95   18.51000     1.30000  
2006   96   20.79000     4.81000  
2006   97   15.50000     3.56000  
2006   98   18.34000     4.78000  
2006   99   15.17000     1.69000  
2006  100    9.28000     0.30000  
2006  101   11.10000    -1.61000  
2006  102   12.83000    -0.09000  
2006  103   14.89000     2.87000  
2006  104   16.04000     3.37000  
2006  105   19.80000     5.24000  
2006  106   20.72000     6.89000  
2006  107   22.09000     9.61000  
2006  108   20.34000     2.08000  
2006  109   10.36000    -3.13000  
2006  110    2.76000    -2.86000  
2006  111    6.56000    -5.41000  
2006  112    9.10000    -2.41000  
2006  113   16.80000     1.18000  
2006  114   19.77000     2.27000  
2006  115   20.86000     6.85000  
2006  116   18.20000     6.30000  
2006  117   21.54000     8.44000  
2006  118   22.37000     7.62000  
2006  119   15.77000     7.16000  
2006  120   24.63000     8.98000  
2006  121   15.76000     6.04000  
2006  122   12.10000     1.10000  
2006  123   18.95000     4.64000  
2006  124   21.87000     8.76000  
2006  125   25.65000    10.48000  
2006  126   16.87000     8.09000  
2006  127   18.74000     6.14000  
2006  128   15.61000     4.56000  
2006  129   17.85000     5.36000  
2006  130   22.17000     5.31000  
2006  131   22.87000     8.88000  
2006  132   22.83000    10.23000  
2006  133   22.88000    10.93000  
2006  134   26.35000    12.85000  
2006  135   27.72000    13.15000  
2006  136   26.55000    13.81000  
2006  137   23.96000    10.73000  
2006  138   22.95000     8.43000  
2006  139   24.97000    10.24000  
2006  140   23.74000    13.83000  
2006  141   21.36000    12.50000  
2006  142   21.68000    11.32000  
2006  143   26.59000    14.42000  
2006  144   27.24000    12.88000  
2006  145   28.01000    12.79000  
2006  146   20.98000    10.53000  
2006  147   25.11000    10.80000  
2006  148   23.64000    12.84000  
2006  149   23.82000    10.86000  
2006  150   25.45000    11.87000  
2006  151   27.40000    16.06000  
2006  152   28.14000    15.41000  
2006  153   29.79000    16.63000  
2006  154   31.01000    16.83000  
2006  155   29.03000    14.17000  
2006  156   21.36000    12.11000  
2006  157   23.78000    14.57000  
2006  158   26.06000    14.07000  
2006  159   29.52000    15.27000  
2006  160   31.15000    18.39000  
2006  161   29.81000    16.37000  
2006  162   31.52000    15.18000  
2006  163   22.71000    12.48000  
2006  164   25.16000     9.86000  
2006  165   23.94000    11.09000  
2006  166   27.44000    13.29000  
2006  167   27.97000    15.97000  
2006  168   27.82000    15.97000  
2006  169   25.42000    13.36000  
2006  170   19.15000    10.14000  
2006  171   25.73000    15.06000  
2006  172   19.92000     9.84000  
2006  173   24.62000    10.07000  
2006  174   26.25000    13.38000  
2006  175   28.46000    18.01000  
2006  176   28.95000    17.16000  
2006  177   30.05000    15.63000  
2006  178   27.67000    15.07000  
2006  179   23.40000    12.91000  
2006  180   27.48000    15.40000  
2006  181   30.31000    19.34000  
2006  182   31.49000    18.83000  
2006  183   28.98000    17.10000  
2006  184   23.39000    13.17000  
2006  185   29.38000    15.24000  
2006  186   30.93000    15.87000  
2006  187   32.21000    18.05000  
2006  188   30.75000    21.02000  
2006  189   28.19000    16.12000  
2006  190   17.88000    12.12000  
2006  191   24.37000    14.25000  
2006  192   26.99000    14.48000  
2006  193   23.02000    10.69000  
2006  194   26.63000    12.91000  
2006  195   27.44000    14.71000  
2006  196   30.07000    18.37000  
2006  197   23.24000    14.79000  
2006  198   28.81000    14.85000  
2006  199   28.91000    15.05000  
2006  200   29.89000    16.15000  
2006  201   29.40000    19.52000  
2006  202   28.97000    17.02000  
2006  203   30.48000    20.08000  
2006  204   28.99000    16.72000  
2006  205   29.73000    19.36000  
2006  206   25.25000    17.95000  
2006  207   28.59000    17.14000  
2006  208   24.84000    15.46000  
2006  209   25.76000    16.44000  
2006  210   18.14000    12.89000  
2006  211   19.47000    13.51000  
2006  212   23.68000    14.15000  
2006  213   27.54000    14.78000  
2006  214   29.90000    17.19000  
2006  215   31.40000    18.98000  
2006  216   32.58000    18.87000  
2006  217   32.18000    16.98000  
2006  218   24.34000    11.64000  
2006  219   16.10000    11.56000  
2006  220   24.89000    12.79000  
2006  221   24.89000    14.49000  
2006  222   25.41000    13.05000  
2006  223   24.88000    11.69000  
2006  224   25.47000    13.83000  
2006  225   26.46000    15.18000  
2006  226   25.89000    16.72000  
2006  227   23.88000    12.86000  
2006  228   27.46000    14.52000  
2006  229   28.95000    15.62000  
2006  230   29.54000    17.80000  
2006  231   20.81000    11.99000  
2006  232   18.13000     9.08000  
2006  233   24.61000    10.97000  
2006  234   25.70000    12.94000  
2006  235   25.38000    13.17000  
2006  236   26.80000    13.59000  
2006  237   25.07000    11.55000  
2006  238   26.19000    13.41000  
2006  239   27.74000    12.59000  
2006  240   14.63000     7.47000  
2006  241   19.37000     6.42000  
2006  242   23.77000    10.19000  
2006  243   25.61000    11.20000  
2006  244   21.05000    11.26000  
2006  245   23.83000    11.75000  
2006  246   24.33000    11.08000  
2006  247   23.78000     9.28000  
2006  248   23.45000    11.61000  
2006  249   23.66000    12.50000  
2006  250   16.92000     7.74000  
2006  251   19.29000     7.18000  
2006  252   20.29000     7.37000  
2006  253   22.70000     8.64000  
2006  254   25.05000    10.09000  
2006  255   23.73000    10.77000  
2006  256   24.80000    10.42000  
2006  257   24.05000    11.24000  
2006  258   24.11000    11.42000  
2006  259   25.49000    10.82000  
2006  260   24.79000    11.05000  
2006  261   27.03000    13.36000  
2006  262   26.08000    15.58000  
2006  263   22.72000     9.66000  
2006  264   14.70000     9.57000  
2006  265   16.06000     9.25000  
2006  266   12.82000     8.15000  
2006  267    8.61000     6.19000  
2006  268   10.42000     7.39000  
2006  269    9.57000     6.14000  
2006  270   17.01000     6.34000  
2006  271   22.00000     5.49000  
2006  272   23.29000     8.29000  
2006  273   24.08000     8.46000  
2006  274   24.15000     8.48000  
2006  275   21.21000    10.36000  
2006  276   16.59000     8.21000  
2006  277   17.18000     6.98000  
2006  278   18.68000     5.93000  
2006  279   14.94000     6.01000  
2006  280   14.66000     5.26000  
2006  281   16.32000     3.84000  
2006  282   13.52000     3.70000  
2006  283   14.65000     2.73000  
2006  284   16.35000     3.56000  
2006  285   17.89000     5.03000  
2006  286   15.04000     5.16000  
2006  287   18.51000     4.61000  
2006  288   16.49000     4.22000  
2006  289   16.19000     6.85000  
2006  290   15.13000     2.82000  
2006  291   16.16000     2.49000  
2006  292   17.58000     3.00000  
2006  293   17.98000     2.69000  
2006  294    7.57000    -2.05000  
2006  295    6.77000    -3.29000  
2006  296    8.83000    -4.31000  
2006  297   11.21000    -4.41000  
2006  298   10.48000    -0.80000  
2006  299   11.80000    -3.30000  
2006  300    8.89000    -3.08000  
2006  301   10.38000    -1.24000  
2006  302   11.26000    -2.07000  
2006  303    9.72000    -0.83000  
2006  304   10.98000    -2.21000  
2006  305   11.89000    -2.94000  
2006  306   12.40000    -1.61000  
2006  307   11.62000    -2.42000  
2006  308    8.66000    -1.81000  
2006  309    8.29000    -2.84000  
2006  310   11.13000    -4.38000  
2006  311    9.21000     0.83000  
2006  312   10.98000     1.03000  
2006  313   11.31000    -1.09000  
2006  314    5.71000    -1.83000  
2006  315    6.36000    -3.65000  
2006  316    0.50000    -6.00000  
2006  317    2.95000    -6.35000  
2006  318    2.21000    -5.66000  
2006  319    3.81000    -6.69000  
2006  320    0.32000    -8.39000  
2006  321   -0.28000    -8.09000  
2006  322    1.21000    -9.51000  
2006  323    2.23000    -8.87000  
2006  324    3.69000    -8.63000  
2006  325    1.95000    -6.93000  
2006  326    1.46000    -4.84000  
2006  327    3.16000    -7.99000  
2006  328    3.87000    -9.66000  
2006  329    2.15000    -7.54000  
2006  330    3.28000    -8.22000  
2006  331    2.52000   -10.07000  
2006  332    5.02000    -8.10000  
2006  333    6.33000    -8.25000  
2006  334    3.71000    -8.05000  
2006  335    5.67000    -6.19000  
2006  336    1.08000   -13.85000  
2006  337  -11.42000   -21.61000  
2006  338   -9.81000   -24.16000  
2006  339   -3.57000   -14.13000  
2006  340   -0.88000    -6.52000  
2006  341    1.64000    -4.94000  
2006  342    5.92000    -5.75000  
2006  343    5.04000    -8.45000  
2006  344    3.76000    -9.62000  
2006  345    3.90000    -8.45000  
2006  346    0.45000   -10.27000  
2006  347   -1.31000   -10.28000  
2006  348    2.42000   -10.36000  
2006  349    3.80000    -9.60000  
2006  350    2.04000   -10.48000  
2006  351    2.90000   -10.90000  
2006  352    3.44000    -8.75000  
2006  353   -0.90000    -7.76000  
2006  354   -3.29000   -17.72000  
2006  355  -11.38000   -17.10000  
2006  356   -5.95000   -13.09000  
2006  357   -0.63000   -11.15000  
2006  358   -2.78000   -13.47000  
2006  359   -2.73000   -14.34000  
2006  360   -3.11000    -8.40000  
2006  361   -9.07000   -19.40000  
2006  362  -10.03000   -19.52000  
2006  363   -5.70000   -18.09000  
2006  364   -7.21000   -18.91000  
2006  365   -5.17000   -18.67000  
2007    1   -7.06000   -17.03000  
2007    2   -5.07000   -17.65000  
2007    3   -5.03000   -16.74000  
2007    4   -0.19000   -17.05000  
2007    5   -2.79000   -15.77000  
2007    6   -0.78000   -14.99000  
2007    7   -4.42000   -14.67000  
2007    8    1.33000   -10.53000  
2007    9   -3.42000   -11.10000  
2007   10   -6.10000   -12.50000  
2007   11   -8.19000   -12.23000  
2007   12   -7.94000   -16.40000  
2007   13   -4.99000   -17.03000  
2007   14   -5.69000   -16.70000  
2007   15   -7.66000   -15.01000  
2007   16   -5.02000   -14.92000  
2007   17   -7.30000   -13.80000  
2007   18  -10.46000   -14.85000  
2007   19  -11.58000   -17.88000  
2007   20  -12.43000   -22.74000  
2007   21  -14.07000   -25.51000  
2007   22  -13.80000   -23.81000  
2007   23  -18.38000   -26.24000  
2007   24  -15.84000   -24.42000  
2007   25  -18.60000   -26.01000  
2007   26  -17.14000   -26.97000  
2007   27  -16.05000   -23.57000  
2007   28  -15.10000   -23.34000  
2007   29  -11.94000   -26.55000  
2007   30  -13.23000   -27.89000  
2007   31  -11.16000   -27.25000  
2007   32  -10.44000   -27.05000  
2007   33   -8.94000   -23.30000  
2007   34  -12.11000   -23.00000  
2007   35   -8.76000   -23.40000  
2007   36   -7.03000   -22.75000  
2007   37  -10.12000   -23.15000  
2007   38  -12.22000   -21.86000  
2007   39   -8.78000   -22.42000  
2007   40   -6.83000   -22.71000  
2007   41   -9.55000   -20.18000  
2007   42  -10.41000   -20.07000  
2007   43   -8.64000   -20.02000  
2007   44   -3.52000   -19.82000  
2007   45   -1.07000   -18.40000  
2007   46   -5.28000   -14.75000  
2007   47   -4.59000   -14.83000  
2007   48   -3.06000   -14.53000  
2007   49    2.36000   -14.19000  
2007   50    4.47000   -11.61000  
2007   51    4.50000   -11.76000  
2007   52    8.22000    -8.78000  
2007   53    8.41000    -8.96000  
2007   54   -0.49000    -6.47000  
2007   55   -1.52000   -11.13000  
2007   56   -1.06000   -11.55000  
2007   57    1.13000   -10.80000  
2007   58    2.70000    -7.70000  
2007   59    9.26000    -5.64000  
2007   60    5.90000    -6.92000  
2007   61    9.96000    -4.27000  
2007   62    8.10000    -5.40000  
2007   63    9.56000    -3.55000  
2007   64    8.49000    -2.37000  
2007   65    8.42000    -1.42000  
2007   66    8.42000    -3.97000  
2007   67   10.42000    -3.56000  
2007   68   12.00000    -0.62000  
2007   69   12.11000    -0.86000  
2007   70   12.65000    -6.43000  
2007   71    4.88000    -7.55000  
2007   72   14.80000    -3.83000  
2007   73    7.06000    -1.60000  
2007   74   14.41000    -3.35000  
2007   75   17.86000     0.35000  
2007   76   16.73000     3.42000  
2007   77   11.17000     0.31000  
2007   78    8.63000     0.28000  
2007   79    7.18000    -2.70000  
2007   80    9.32000    -3.24000  
2007   81   10.98000    -2.51000  
2007   82   13.38000    -1.34000  
2007   83   14.62000     0.45000  
2007   84   16.45000     0.78000  
2007   85   11.54000     0.17000  
2007   86    4.51000    -3.07000  
2007   87    6.28000    -8.67000  
2007   88    8.69000    -2.03000  
2007   89    4.48000    -5.21000  
2007   90    2.83000    -6.18000  
2007   91    8.03000    -5.40000  
2007   92   10.55000    -5.20000  
2007   93   11.39000    -1.04000  
2007   94   13.06000     0.50000  
2007   95   18.51000     1.30000  
2007   96   20.79000     4.81000  
2007   97   15.50000     3.56000  
2007   98   18.34000     4.78000  