162155tmp.tem: Temperature data - file written by SWAT+ editor 2025-11-04 13:23:50.429511
nbyr     tstep       lat       lon      elev
  14         0    40.281    98.531  1250.000
2005    1   -5.20000   -22.46000  
2005    2   -3.76000   -20.92000  
2005    3   -2.35000   -21.58000  
2005    4   -1.79000   -21.44000  
2005    5   -1.79000   -20.58000  
2005    6   -1.26000   -19.18000  
2005    7   -2.84000   -18.94000  
2005    8   -2.23000   -16.41000  
2005    9   -0.59000   -13.75000  
2005   10   -3.64000   -16.06000  
2005   11   -4.77000   -15.62000  
2005   12   -6.01000   -15.78000  
2005   13   -3.62000   -19.03000  
2005   14   -3.35000   -19.69000  
2005   15   -4.03000   -20.18000  
2005   16   -2.11000   -17.18000  
2005   17   -5.51000   -18.40000  
2005   18   -6.61000   -18.85000  
2005   19   -9.52000   -19.98000  
2005   20  -11.97000   -25.49000  
2005   21  -13.19000   -29.03000  
2005   22  -16.45000   -29.99000  
2005   23  -19.82000   -32.66000  
2005   24  -19.56000   -32.68000  
2005   25  -18.08000   -28.25000  
2005   26  -18.76000   -27.68000  
2005   27  -16.34000   -25.05000  
2005   28  -12.95000   -22.56000  
2005   29  -14.44000   -29.95000  
2005   30  -17.68000   -29.70000  
2005   31  -16.08000   -30.02000  
2005   32  -14.79000   -30.59000  
2005   33  -12.34000   -26.39000  
2005   34   -9.96000   -26.95000  
2005   35   -8.91000   -27.40000  
2005   36   -7.32000   -27.47000  
2005   37   -7.94000   -26.72000  
2005   38   -9.14000   -26.89000  
2005   39   -7.75000   -27.48000  
2005   40   -4.57000   -25.03000  
2005   41   -6.36000   -23.32000  
2005   42   -6.32000   -24.28000  
2005   43   -4.13000   -19.25000  
2005   44   -2.71000   -21.76000  
2005   45   -3.67000   -22.42000  
2005   46   -4.02000   -18.51000  
2005   47   -3.42000   -19.05000  
2005   48    0.51000   -19.22000  
2005   49    4.47000   -16.00000  
2005   50    6.44000   -13.68000  
2005   51    7.46000    -9.29000  
2005   52   11.45000    -9.24000  
2005   53    9.16000    -7.98000  
2005   54    4.14000    -4.04000  
2005   55    3.36000   -13.70000  
2005   56    1.85000   -14.94000  
2005   57    4.63000   -16.22000  
2005   58    6.41000    -9.70000  
2005   59   10.52000    -7.58000  
2005   60    9.72000    -9.54000  
2005   61   11.57000    -9.90000  
2005   62   11.34000    -9.16000  
2005   63   12.83000    -8.46000  
2005   64   11.03000    -2.11000  
2005   65   10.82000    -4.10000  
2005   66   13.04000    -6.47000  
2005   67   14.48000    -6.30000  
2005   68   16.85000    -3.25000  
2005   69   15.60000    -3.23000  
2005   70   16.63000    -2.29000  
2005   71    7.80000    -4.94000  
2005   72   18.49000    -5.19000  
2005   73   11.39000    -5.07000  
2005   74   17.88000    -5.15000  
2005   75   21.65000    -2.58000  
2005   76   21.06000     0.61000  
2005   77   14.29000     0.66000  
2005   78   12.54000     0.26000  
2005   79   11.88000    -7.18000  
2005   80   14.52000    -7.43000  
2005   81   13.17000    -8.71000  
2005   82   17.70000    -8.74000  
2005   83   19.56000    -2.79000  
2005   84   20.50000    -1.73000  
2005   85   15.57000     2.28000  
2005   86    8.11000    -2.46000  
2005   87   11.71000    -2.68000  
2005   88   12.52000    -1.45000  
2005   89    9.01000    -2.11000  
2005   90    7.85000    -6.31000  
2005   91   11.94000    -8.02000  
2005   92   14.98000    -6.07000  
2005   93   16.46000    -3.18000  
2005   94   18.40000    -2.18000  
2005   95   21.54000     0.47000  
2005   96   23.54000     1.48000  
2005   97   18.97000     6.13000  
2005   98   21.92000     4.69000  
2005   99   17.60000     1.05000  
2005  100   13.94000     0.98000  
2005  101   16.15000    -1.27000  
2005  102   16.53000    -1.47000  
2005  103   19.71000    -0.71000  
2005  104   21.33000     0.84000  
2005  105   24.59000     1.79000  
2005  106   25.52000     5.25000  
2005  107   27.20000     8.12000  
2005  108   24.07000     2.41000  
2005  109   14.35000    -0.26000  
2005  110    6.58000     0.20000  
2005  111   11.36000    -3.10000  
2005  112   12.81000    -4.10000  
2005  113   20.36000    -1.78000  
2005  114   23.99000    -0.28000  
2005  115   25.04000     1.72000  
2005  116   23.83000     5.87000  
2005  117   26.38000     7.63000  
2005  118   27.38000    10.19000  
2005  119   20.44000     6.67000  
2005  120   28.35000     8.21000  
2005  121   19.95000     6.49000  
2005  122   16.63000    -0.61000  
2005  123   23.06000     3.12000  
2005  124   24.41000     7.21000  
2005  125   30.08000    10.61000  
2005  126   22.12000    12.66000  
2005  127   22.60000    10.16000  
2005  128   19.25000     3.06000  
2005  129   21.92000     3.33000  
2005  130   25.77000     6.49000  
2005  131   25.49000     7.86000  
2005  132   25.94000     5.31000  
2005  133   28.38000     9.56000  
2005  134   31.79000    13.53000  
2005  135   33.03000    16.38000  
2005  136   30.84000    16.75000  
2005  137   27.25000    12.12000  
2005  138   25.93000     6.87000  
2005  139   29.44000    12.04000  
2005  140   27.07000    15.02000  
2005  141   26.23000     9.99000  
2005  142   28.72000    10.02000  
2005  143   30.57000    12.10000  
2005  144   32.57000    12.38000  
2005  145   33.73000    16.67000  
2005  146   25.20000     7.81000  
2005  147   28.90000    10.37000  
2005  148   27.83000    11.56000  
2005  149   26.90000     7.30000  
2005  150   29.15000    12.50000  
2005  151   31.73000    17.35000  
2005  152   32.09000    12.22000  
2005  153   32.60000    14.73000  
2005  154   34.55000    19.23000  
2005  155   33.29000    17.69000  
2005  156   26.42000    11.44000  
2005  157   27.96000    16.22000  
2005  158   31.18000    13.99000  
2005  159   34.08000    14.82000  
2005  160   35.74000    17.77000  
2005  161   35.66000    18.27000  
2005  162   36.34000    17.46000  
2005  163   26.98000    14.39000  
2005  164   28.79000    10.88000  
2005  165   28.92000    10.05000  
2005  166   31.80000    12.62000  
2005  167   30.94000    14.89000  
2005  168   31.33000    13.68000  
2005  169   30.76000    14.85000  
2005  170   24.40000    10.06000  
2005  171   29.30000    16.09000  
2005  172   21.68000    11.44000  
2005  173   29.16000    10.65000  
2005  174   30.68000    13.59000  
2005  175   33.86000    18.10000  
2005  176   34.30000    21.69000  
2005  177   35.13000    17.17000  
2005  178   31.36000    19.33000  
2005  179   27.26000    13.03000  
2005  180   32.31000    16.17000  
2005  181   34.38000    16.32000  
2005  182   36.22000    21.45000  
2005  183   35.38000    20.88000  
2005  184   28.22000    12.75000  
2005  185   34.52000    14.24000  
2005  186   35.74000    15.34000  
2005  187   36.10000    15.99000  
2005  188   35.94000    21.47000  
2005  189   33.73000    20.33000  
2005  190   24.23000    13.09000  
2005  191   29.74000    14.49000  
2005  192   32.22000    14.86000  
2005  193   28.80000    13.34000  
2005  194   31.20000    14.54000  
2005  195   32.92000    13.30000  
2005  196   35.11000    18.26000  
2005  197   27.62000    13.79000  
2005  198   32.87000    16.58000  
2005  199   33.04000    15.79000  
2005  200   34.13000    18.22000  
2005  201   35.10000    21.80000  
2005  202   32.79000    17.30000  
2005  203   35.84000    20.43000  
2005  204   35.94000    22.85000  
2005  205   33.95000    20.22000  
2005  206   32.61000    19.45000  
2005  207   33.94000    21.96000  
2005  208   28.56000    17.48000  
2005  209   31.52000    20.06000  
2005  210   24.22000    15.87000  
2005  211   23.26000    16.18000  
2005  212   29.81000    15.19000  
2005  213   32.79000    15.03000  
2005  214   34.50000    15.81000  
2005  215   37.54000    19.28000  
2005  216   37.83000    16.17000  
2005  217   37.58000    20.31000  
2005  218   30.74000    17.36000  
2005  219   20.72000    12.03000  
2005  220   27.85000    11.05000  
2005  221   28.30000    12.97000  
2005  222   30.18000    15.74000  
2005  223   29.82000    12.27000  
2005  224   31.31000    13.28000  
2005  225   31.67000    14.65000  
2005  226   32.02000    15.11000  
2005  227   28.13000    12.04000  
2005  228   31.07000    13.65000  
2005  229   32.98000    14.96000  
2005  230   33.64000    17.00000  
2005  231   28.23000    14.00000  
2005  232   22.68000    10.12000  
2005  233   28.57000     9.10000  
2005  234   30.07000    12.41000  
2005  235   30.45000    11.71000  
2005  236   32.05000    13.74000  
2005  237   28.99000    10.64000  
2005  238   29.76000    10.52000  
2005  239   31.46000    13.15000  
2005  240   18.90000     8.75000  
2005  241   24.03000     5.39000  
2005  242   26.60000     7.04000  
2005  243   28.92000     8.65000  
2005  244   25.13000    10.11000  
2005  245   29.51000    13.79000  
2005  246   28.98000     9.17000  
2005  247   28.42000    11.88000  
2005  248   27.51000    15.21000  
2005  249   26.95000    15.24000  
2005  250   23.65000     7.83000  
2005  251   22.90000     8.06000  
2005  252   24.24000     4.87000  
2005  253   27.24000     6.16000  
2005  254   29.26000     7.25000  
2005  255   29.15000     8.27000  
2005  256   29.89000     9.85000  
2005  257   28.96000    10.27000  
2005  258   28.91000     7.90000  
2005  259   29.76000     8.56000  
2005  260   28.86000     8.57000  
2005  261   30.39000    10.11000  
2005  262   29.67000    14.58000  
2005  263   25.42000    11.40000  
2005  264   18.02000    11.75000  
2005  265   20.71000     9.64000  
2005  266   17.08000     9.41000  
2005  267   15.39000     7.14000  
2005  268   14.13000     8.32000  
2005  269   12.87000     4.78000  
2005  270   21.22000     4.98000  
2005  271   26.73000     5.81000  
2005  272   26.24000     5.33000  
2005  273   28.91000     6.43000  
2005  274   29.17000     6.78000  
2005  275   27.71000    10.39000  
2005  276   17.75000     8.65000  
2005  277   21.79000     5.99000  
2005  278   22.21000     4.32000  
2005  279   20.64000     6.58000  
2005  280   19.17000     2.35000  
2005  281   21.10000     3.01000  
2005  282   16.68000     0.44000  
2005  283   18.23000     0.23000  
2005  284   20.81000     0.18000  
2005  285   22.38000     3.08000  
2005  286   19.91000     1.36000  
2005  287   22.94000     2.28000  
2005  288   20.55000     3.02000  
2005  289   19.96000     2.59000  
2005  290   19.45000    -0.70000  
2005  291   20.50000    -0.62000  
2005  292   22.36000    -0.99000  
2005  293   22.54000     0.63000  
2005  294   10.59000    -3.82000  
2005  295   10.71000    -7.62000  
2005  296   10.84000    -8.43000  
2005  297   15.20000    -8.76000  
2005  298   14.90000    -6.61000  
2005  299   14.40000    -6.72000  
2005  300   10.98000    -7.21000  
2005  301   13.68000    -6.21000  
2005  302   14.60000    -6.64000  
2005  303   14.34000    -5.71000  
2005  304   15.14000    -4.76000  
2005  305   14.41000    -4.78000  
2005  306   16.89000    -3.38000  
2005  307   14.72000    -5.11000  
2005  308   12.04000    -5.35000  
2005  309   12.16000    -5.14000  
2005  310   14.19000    -4.85000  
2005  311   12.91000    -3.59000  
2005  312   14.37000    -2.23000  
2005  313   13.53000    -2.82000  
2005  314    9.58000    -2.64000  
2005  315   10.52000    -3.82000  
2005  316    3.92000   -10.33000  
2005  317    6.21000   -10.80000  
2005  318    5.95000   -11.67000  
2005  319    6.84000   -12.20000  
2005  320    3.58000    -9.77000  
2005  321    2.77000   -13.98000  
2005  322    2.92000   -14.39000  
2005  323    5.90000   -15.54000  
2005  324    5.20000   -14.73000  
2005  325    5.30000   -13.41000  
2005  326    5.05000    -9.90000  
2005  327    6.76000   -14.88000  
2005  328    6.08000   -14.41000  
2005  329    4.23000   -12.10000  
2005  330    4.81000   -13.38000  
2005  331    4.37000    -8.91000  
2005  332    8.18000   -11.82000  
2005  333    8.60000   -11.90000  
2005  334    4.90000    -9.94000  
2005  335    7.98000    -9.36000  
2005  336    1.82000   -11.18000  
2005  337   -9.48000   -25.15000  
2005  338   -8.64000   -23.66000  
2005  339   -8.00000   -24.79000  
2005  340   -1.81000    -7.62000  
2005  341    1.50000    -6.47000  
2005  342    6.44000    -4.88000  
2005  343    5.31000   -10.81000  
2005  344    5.99000   -13.72000  
2005  345    3.82000   -14.44000  
2005  346    2.46000   -11.29000  
2005  347   -0.19000   -15.12000  
2005  348    3.40000   -15.06000  
2005  349    4.39000   -12.35000  
2005  350    1.47000   -13.57000  
2005  351    2.59000   -14.70000  
2005  352    3.95000   -11.70000  
2005  353    1.59000    -9.76000  
2005  354   -0.12000   -15.82000  
2005  355  -10.18000   -16.54000  
2005  356   -5.79000   -17.02000  
2005  357   -1.26000   -17.12000  
2005  358   -1.23000   -17.01000  
2005  359   -4.53000   -17.53000  
2005  360   -2.94000    -9.76000  
2005  361   -8.76000   -21.97000  
2005  362   -9.45000   -23.91000  
2005  363   -8.07000   -22.00000  
2005  364   -8.52000   -22.90000  
2005  365   -6.74000   -23.15000  
2006    1   -5.20000   -22.46000  
2006    2   -3.76000   -20.92000  
2006    3   -2.35000   -21.58000  
2006    4   -1.79000   -21.44000  
2006    5   -1.79000   -20.58000  
2006    6   -1.26000   -19.18000  
2006    7   -2.84000   -18.94000  
2006    8   -2.23000   -16.41000  
2006    9   -0.59000   -13.75000  
2006   10   -3.64000   -16.06000  
2006   11   -4.77000   -15.62000  
2006   12   -6.01000   -15.78000  
2006   13   -3.62000   -19.03000  
2006   14   -3.35000   -19.69000  
2006   15   -4.03000   -20.18000  
2006   16   -2.11000   -17.18000  
2006   17   -5.51000   -18.40000  
2006   18   -6.61000   -18.85000  
2006   19   -9.52000   -19.98000  
2006   20  -11.97000   -25.49000  
2006   21  -13.19000   -29.03000  
2006   22  -16.45000   -29.99000  
2006   23  -19.82000   -32.66000  
2006   24  -19.56000   -32.68000  
2006   25  -18.08000   -28.25000  
2006   26  -18.76000   -27.68000  
2006   27  -16.34000   -25.05000  
2006   28  -12.95000   -22.56000  
2006   29  -14.44000   -29.95000  
2006   30  -17.68000   -29.70000  
2006   31  -16.08000   -30.02000  
2006   32  -14.79000   -30.59000  
2006   33  -12.34000   -26.39000  
2006   34   -9.96000   -26.95000  
2006   35   -8.91000   -27.40000  
2006   36   -7.32000   -27.47000  
2006   37   -7.94000   -26.72000  
2006   38   -9.14000   -26.89000  
2006   39   -7.75000   -27.48000  
2006   40   -4.57000   -25.03000  
2006   41   -6.36000   -23.32000  
2006   42   -6.32000   -24.28000  
2006   43   -4.13000   -19.25000  
2006   44   -2.71000   -21.76000  
2006   45   -3.67000   -22.42000  
2006   46   -4.02000   -18.51000  
2006   47   -3.42000   -19.05000  
2006   48    0.51000   -19.22000  
2006   49    4.47000   -16.00000  
2006   50    6.44000   -13.68000  
2006   51    7.46000    -9.29000  
2006   52   11.45000    -9.24000  
2006   53    9.16000    -7.98000  
2006   54    4.14000    -4.04000  
2006   55    3.36000   -13.70000  
2006   56    1.85000   -14.94000  
2006   57    4.63000   -16.22000  
2006   58    6.41000    -9.70000  
2006   59   10.52000    -7.58000  
2006   60    9.72000    -9.54000  
2006   61   11.57000    -9.90000  
2006   62   11.34000    -9.16000  
2006   63   12.83000    -8.46000  
2006   64   11.03000    -2.11000  
2006   65   10.82000    -4.10000  
2006   66   13.04000    -6.47000  
2006   67   14.48000    -6.30000  
2006   68   16.85000    -3.25000  
2006   69   15.60000    -3.23000  
2006   70   16.63000    -2.29000  
2006   71    7.80000    -4.94000  
2006   72   18.49000    -5.19000  
2006   73   11.39000    -5.07000  
2006   74   17.88000    -5.15000  
2006   75   21.65000    -2.58000  
2006   76   21.06000     0.61000  
2006   77   14.29000     0.66000  
2006   78   12.54000     0.26000  
2006   79   11.88000    -7.18000  
2006   80   14.52000    -7.43000  
2006   81   13.17000    -8.71000  
2006   82   17.70000    -8.74000  
2006   83   19.56000    -2.79000  
2006   84   20.50000    -1.73000  
2006   85   15.57000     2.28000  
2006   86    8.11000    -2.46000  
2006   87   11.71000    -2.68000  
2006   88   12.52000    -1.45000  
2006   89    9.01000    -2.11000  
2006   90    7.85000    -6.31000  
2006   91   11.94000    -8.02000  
2006   92   14.98000    -6.07000  
2006   93   16.46000    -3.18000  
2006   94   18.40000    -2.18000  
2006   95   21.54000     0.47000  
2006   96   23.54000     1.48000  
2006   97   18.97000     6.13000  
2006   98   21.92000     4.69000  
2006   99   17.60000     1.05000  
2006  100   13.94000     0.98000  
2006  101   16.15000    -1.27000  
2006  102   16.53000    -1.47000  
2006  103   19.71000    -0.71000  
2006  104   21.33000     0.84000  
2006  105   24.59000     1.79000  
2006  106   25.52000     5.25000  
2006  107   27.20000     8.12000  
2006  108   24.07000     2.41000  
2006  109   14.35000    -0.26000  
2006  110    6.58000     0.20000  
2006  111   11.36000    -3.10000  
2006  112   12.81000    -4.10000  
2006  113   20.36000    -1.78000  
2006  114   23.99000    -0.28000  
2006  115   25.04000     1.72000  
2006  116   23.83000     5.87000  
2006  117   26.38000     7.63000  
2006  118   27.38000    10.19000  
2006  119   20.44000     6.67000  
2006  120   28.35000     8.21000  
2006  121   19.95000     6.49000  
2006  122   16.63000    -0.61000  
2006  123   23.06000     3.12000  
2006  124   24.41000     7.21000  
2006  125   30.08000    10.61000  
2006  126   22.12000    12.66000  
2006  127   22.60000    10.16000  
2006  128   19.25000     3.06000  
2006  129   21.92000     3.33000  
2006  130   25.77000     6.49000  
2006  131   25.49000     7.86000  
2006  132   25.94000     5.31000  
2006  133   28.38000     9.56000  
2006  134   31.79000    13.53000  
2006  135   33.03000    16.38000  
2006  136   30.84000    16.75000  
2006  137   27.25000    12.12000  
2006  138   25.93000     6.87000  
2006  139   29.44000    12.04000  
2006  140   27.07000    15.02000  
2006  141   26.23000     9.99000  
2006  142   28.72000    10.02000  
2006  143   30.57000    12.10000  
2006  144   32.57000    12.38000  
2006  145   33.73000    16.67000  
2006  146   25.20000     7.81000  
2006  147   28.90000    10.37000  
2006  148   27.83000    11.56000  
2006  149   26.90000     7.30000  
2006  150   29.15000    12.50000  
2006  151   31.73000    17.35000  
2006  152   32.09000    12.22000  
2006  153   32.60000    14.73000  
2006  154   34.55000    19.23000  
2006  155   33.29000    17.69000  
2006  156   26.42000    11.44000  
2006  157   27.96000    16.22000  
2006  158   31.18000    13.99000  
2006  159   34.08000    14.82000  
2006  160   35.74000    17.77000  
2006  161   35.66000    18.27000  
2006  162   36.34000    17.46000  
2006  163   26.98000    14.39000  
2006  164   28.79000    10.88000  
2006  165   28.92000    10.05000  
2006  166   31.80000    12.62000  
2006  167   30.94000    14.89000  
2006  168   31.33000    13.68000  
2006  169   30.76000    14.85000  
2006  170   24.40000    10.06000  
2006  171   29.30000    16.09000  
2006  172   21.68000    11.44000  
2006  173   29.16000    10.65000  
2006  174   30.68000    13.59000  
2006  175   33.86000    18.10000  
2006  176   34.30000    21.69000  
2006  177   35.13000    17.17000  
2006  178   31.36000    19.33000  
2006  179   27.26000    13.03000  
2006  180   32.31000    16.17000  
2006  181   34.38000    16.32000  
2006  182   36.22000    21.45000  
2006  183   35.38000    20.88000  
2006  184   28.22000    12.75000  
2006  185   34.52000    14.24000  
2006  186   35.74000    15.34000  
2006  187   36.10000    15.99000  
2006  188   35.94000    21.47000  
2006  189   33.73000    20.33000  
2006  190   24.23000    13.09000  
2006  191   29.74000    14.49000  
2006  192   32.22000    14.86000  
2006  193   28.80000    13.34000  
2006  194   31.20000    14.54000  
2006  195   32.92000    13.30000  
2006  196   35.11000    18.26000  
2006  197   27.62000    13.79000  
2006  198   32.87000    16.58000  
2006  199   33.04000    15.79000  
2006  200   34.13000    18.22000  
2006  201   35.10000    21.80000  
2006  202   32.79000    17.30000  
2006  203   35.84000    20.43000  
2006  204   35.94000    22.85000  
2006  205   33.95000    20.22000  
2006  206   32.61000    19.45000  
2006  207   33.94000    21.96000  
2006  208   28.56000    17.48000  
2006  209   31.52000    20.06000  
2006  210   24.22000    15.87000  
2006  211   23.26000    16.18000  
2006  212   29.81000    15.19000  
2006  213   32.79000    15.03000  
2006  214   34.50000    15.81000  
2006  215   37.54000    19.28000  
2006  216   37.83000    16.17000  
2006  217   37.58000    20.31000  
2006  218   30.74000    17.36000  
2006  219   20.72000    12.03000  
2006  220   27.85000    11.05000  
2006  221   28.30000    12.97000  
2006  222   30.18000    15.74000  
2006  223   29.82000    12.27000  
2006  224   31.31000    13.28000  
2006  225   31.67000    14.65000  
2006  226   32.02000    15.11000  
2006  227   28.13000    12.04000  
2006  228   31.07000    13.65000  
2006  229   32.98000    14.96000  
2006  230   33.64000    17.00000  
2006  231   28.23000    14.00000  
2006  232   22.68000    10.12000  
2006  233   28.57000     9.10000  
2006  234   30.07000    12.41000  
2006  235   30.45000    11.71000  
2006  236   32.05000    13.74000  
2006  237   28.99000    10.64000  
2006  238   29.76000    10.52000  
2006  239   31.46000    13.15000  
2006  240   18.90000     8.75000  
2006  241   24.03000     5.39000  
2006  242   26.60000     7.04000  
2006  243   28.92000     8.65000  
2006  244   25.13000    10.11000  
2006  245   29.51000    13.79000  
2006  246   28.98000     9.17000  
2006  247   28.42000    11.88000  
2006  248   27.51000    15.21000  
2006  249   26.95000    15.24000  
2006  250   23.65000     7.83000  
2006  251   22.90000     8.06000  
2006  252   24.24000     4.87000  
2006  253   27.24000     6.16000  
2006  254   29.26000     7.25000  
2006  255   29.15000     8.27000  
2006  256   29.89000     9.85000  
2006  257   28.96000    10.27000  
2006  258   28.91000     7.90000  
2006  259   29.76000     8.56000  
2006  260   28.86000     8.57000  
2006  261   30.39000    10.11000  
2006  262   29.67000    14.58000  
2006  263   25.42000    11.40000  
2006  264   18.02000    11.75000  
2006  265   20.71000     9.64000  
2006  266   17.08000     9.41000  
2006  267   15.39000     7.14000  
2006  268   14.13000     8.32000  
2006  269   12.87000     4.78000  
2006  270   21.22000     4.98000  
2006  271   26.73000     5.81000  
2006  272   26.24000     5.33000  
2006  273   28.91000     6.43000  
2006  274   29.17000     6.78000  
2006  275   27.71000    10.39000  
2006  276   17.75000     8.65000  
2006  277   21.79000     5.99000  
2006  278   22.21000     4.32000  
2006  279   20.64000     6.58000  
2006  280   19.17000     2.35000  
2006  281   21.10000     3.01000  
2006  282   16.68000     0.44000  
2006  283   18.23000     0.23000  
2006  284   20.81000     0.18000  
2006  285   22.38000     3.08000  
2006  286   19.91000     1.36000  
2006  287   22.94000     2.28000  
2006  288   20.55000     3.02000  
2006  289   19.96000     2.59000  
2006  290   19.45000    -0.70000  
2006  291   20.50000    -0.62000  
2006  292   22.36000    -0.99000  
2006  293   22.54000     0.63000  
2006  294   10.59000    -3.82000  
2006  295   10.71000    -7.62000  
2006  296   10.84000    -8.43000  
2006  297   15.20000    -8.76000  
2006  298   14.90000    -6.61000  
2006  299   14.40000    -6.72000  
2006  300   10.98000    -7.21000  
2006  301   13.68000    -6.21000  
2006  302   14.60000    -6.64000  
2006  303   14.34000    -5.71000  
2006  304   15.14000    -4.76000  
2006  305   14.41000    -4.78000  
2006  306   16.89000    -3.38000  
2006  307   14.72000    -5.11000  
2006  308   12.04000    -5.35000  
2006  309   12.16000    -5.14000  
2006  310   14.19000    -4.85000  
2006  311   12.91000    -3.59000  
2006  312   14.37000    -2.23000  
2006  313   13.53000    -2.82000  
2006  314    9.58000    -2.64000  
2006  315   10.52000    -3.82000  
2006  316    3.92000   -10.33000  
2006  317    6.21000   -10.80000  
2006  318    5.95000   -11.67000  
2006  319    6.84000   -12.20000  
2006  320    3.58000    -9.77000  
2006  321    2.77000   -13.98000  
2006  322    2.92000   -14.39000  
2006  323    5.90000   -15.54000  
2006  324    5.20000   -14.73000  
2006  325    5.30000   -13.41000  
2006  326    5.05000    -9.90000  
2006  327    6.76000   -14.88000  
2006  328    6.08000   -14.41000  
2006  329    4.23000   -12.10000  
2006  330    4.81000   -13.38000  
2006  331    4.37000    -8.91000  
2006  332    8.18000   -11.82000  
2006  333    8.60000   -11.90000  
2006  334    4.90000    -9.94000  
2006  335    7.98000    -9.36000  
2006  336    1.82000   -11.18000  
2006  337   -9.48000   -25.15000  
2006  338   -8.64000   -23.66000  
2006  339   -8.00000   -24.79000  
2006  340   -1.81000    -7.62000  
2006  341    1.50000    -6.47000  
2006  342    6.44000    -4.88000  
2006  343    5.31000   -10.81000  
2006  344    5.99000   -13.72000  
2006  345    3.82000   -14.44000  
2006  346    2.46000   -11.29000  
2006  347   -0.19000   -15.12000  
2006  348    3.40000   -15.06000  
2006  349    4.39000   -12.35000  
2006  350    1.47000   -13.57000  
2006  351    2.59000   -14.70000  
2006  352    3.95000   -11.70000  
2006  353    1.59000    -9.76000  
2006  354   -0.12000   -15.82000  
2006  355  -10.18000   -16.54000  
2006  356   -5.79000   -17.02000  
2006  357   -1.26000   -17.12000  
2006  358   -1.23000   -17.01000  
2006  359   -4.53000   -17.53000  
2006  360   -2.94000    -9.76000  
2006  361   -8.76000   -21.97000  
2006  362   -9.45000   -23.91000  
2006  363   -8.07000   -22.00000  
2006  364   -8.52000   -22.90000  
2006  365   -6.74000   -23.15000  
2007    1   -5.20000   -22.46000  
2007    2   -3.76000   -20.92000  
2007    3   -2.35000   -21.58000  
2007    4   -1.79000   -21.44000  
2007    5   -1.79000   -20.58000  
2007    6   -1.26000   -19.18000  
2007    7   -2.84000   -18.94000  
2007    8   -2.23000   -16.41000  
2007    9   -0.59000   -13.75000  
2007   10   -3.64000   -16.06000  
2007   11   -4.77000   -15.62000  
2007   12   -6.01000   -15.78000  
2007   13   -3.62000   -19.03000  
2007   14   -3.35000   -19.69000  
2007   15   -4.03000   -20.18000  
2007   16   -2.11000   -17.18000  
2007   17   -5.51000   -18.40000  
2007   18   -6.61000   -18.85000  
2007   19   -9.52000   -19.98000  
2007   20  -11.97000   -25.49000  
2007   21  -13.19000   -29.03000  
2007   22  -16.45000   -29.99000  
2007   23  -19.82000   -32.66000  
2007   24  -19.56000   -32.68000  
2007   25  -18.08000   -28.25000  
2007   26  -18.76000   -27.68000  
2007   27  -16.34000   -25.05000  
2007   28  -12.95000   -22.56000  
2007   29  -14.44000   -29.95000  
2007   30  -17.68000   -29.70000  
2007   31  -16.08000   -30.02000  
2007   32  -14.79000   -30.59000  
2007   33  -12.34000   -26.39000  
2007   34   -9.96000   -26.95000  
2007   35   -8.91000   -27.40000  
2007   36   -7.32000   -27.47000  
2007   37   -7.94000   -26.72000  
2007   38   -9.14000   -26.89000  
2007   39   -7.75000   -27.48000  
2007   40   -4.57000   -25.03000  
2007   41   -6.36000   -23.32000  
2007   42   -6.32000   -24.28000  
2007   43   -4.13000   -19.25000  
2007   44   -2.71000   -21.76000  
2007   45   -3.67000   -22.42000  
2007   46   -4.02000   -18.51000  
2007   47   -3.42000   -19.05000  
2007   48    0.51000   -19.22000  
2007   49    4.47000   -16.00000  
2007   50    6.44000   -13.68000  
2007   51    7.46000    -9.29000  
2007   52   11.45000    -9.24000  
2007   53    9.16000    -7.98000  
2007   54    4.14000    -4.04000  
2007   55    3.36000   -13.70000  
2007   56    1.85000   -14.94000  
2007   57    4.63000   -16.22000  
2007   58    6.41000    -9.70000  
2007   59   10.52000    -7.58000  
2007   60    9.72000    -9.54000  
2007   61   11.57000    -9.90000  
2007   62   11.34000    -9.16000  
2007   63   12.83000    -8.46000  
2007   64   11.03000    -2.11000  
2007   65   10.82000    -4.10000  
2007   66   13.04000    -6.47000  
2007   67   14.48000    -6.30000  
2007   68   16.85000    -3.25000  
2007   69   15.60000    -3.23000  
2007   70   16.63000    -2.29000  
2007   71    7.80000    -4.94000  
2007   72   18.49000    -5.19000  
2007   73   11.39000    -5.07000  
2007   74   17.88000    -5.15000  
2007   75   21.65000    -2.58000  
2007   76   21.06000     0.61000  
2007   77   14.29000     0.66000  
2007   78   12.54000     0.26000  
2007   79   11.88000    -7.18000  
2007   80   14.52000    -7.43000  
2007   81   13.17000    -8.71000  
2007   82   17.70000    -8.74000  
2007   83   19.56000    -2.79000  
2007   84   20.50000    -1.73000  
2007   85   15.57000     2.28000  
2007   86    8.11000    -2.46000  
2007   87   11.71000    -2.68000  
2007   88   12.52000    -1.45000  
2007   89    9.01000    -2.11000  
2007   90    7.85000    -6.31000  
2007   91   11.94000    -8.02000  
2007   92   14.98000    -6.07000  
2007   93   16.46000    -3.18000  
2007   94   18.40000    -2.18000  
2007   95   21.54000     0.47000  
2007   96   23.54000     1.48000  
2007   97   18.97000     6.13000  
2007   98   21.92000     4.69000  