164160tmp.tem: Temperature data - file written by SWAT+ editor 2025-11-04 13:23:50.563451
nbyr     tstep       lat       lon      elev
  14         0    40.781    99.781  1242.000
2005    1   -5.51000   -21.82000  
2005    2   -3.99000   -20.01000  
2005    3   -1.49000   -19.83000  
2005    4   -2.54000   -19.66000  
2005    5   -0.33000   -19.40000  
2005    6   -0.70000   -16.02000  
2005    7    0.63000   -16.73000  
2005    8   -1.73000   -14.04000  
2005    9   -1.90000   -13.01000  
2005   10   -3.16000   -13.57000  
2005   11   -3.98000   -15.57000  
2005   12   -6.66000   -18.07000  
2005   13   -5.10000   -19.81000  
2005   14   -3.70000   -18.81000  
2005   15   -5.29000   -19.25000  
2005   16   -3.00000   -17.65000  
2005   17   -5.45000   -17.88000  
2005   18   -5.56000   -17.56000  
2005   19   -9.24000   -19.94000  
2005   20  -10.71000   -26.46000  
2005   21  -14.22000   -32.92000  
2005   22  -17.85000   -32.15000  
2005   23  -20.42000   -31.83000  
2005   24  -20.97000   -32.62000  
2005   25  -16.64000   -29.18000  
2005   26  -17.02000   -29.92000  
2005   27  -16.63000   -26.93000  
2005   28  -14.91000   -26.40000  
2005   29  -14.32000   -30.96000  
2005   30  -16.78000   -30.63000  
2005   31  -17.25000   -30.49000  
2005   32  -14.92000   -30.92000  
2005   33  -11.53000   -26.44000  
2005   34   -9.56000   -28.38000  
2005   35   -8.54000   -28.73000  
2005   36  -11.21000   -29.02000  
2005   37  -12.33000   -28.73000  
2005   38  -11.20000   -29.73000  
2005   39  -10.80000   -31.04000  
2005   40   -6.82000   -24.89000  
2005   41   -8.10000   -25.74000  
2005   42   -9.53000   -25.54000  
2005   43   -6.04000   -24.74000  
2005   44   -4.88000   -22.44000  
2005   45   -5.70000   -23.03000  
2005   46   -5.87000   -20.37000  
2005   47   -6.33000   -21.26000  
2005   48   -2.47000   -20.47000  
2005   49    0.93000   -16.68000  
2005   50    4.88000   -14.09000  
2005   51    7.97000    -9.13000  
2005   52    7.83000    -9.66000  
2005   53    8.61000   -10.48000  
2005   54    3.43000    -4.19000  
2005   55    3.66000   -10.35000  
2005   56    0.81000   -14.56000  
2005   57    3.95000   -15.25000  
2005   58    8.08000    -8.61000  
2005   59   11.07000    -7.12000  
2005   60    7.73000    -9.89000  
2005   61   11.09000    -9.97000  
2005   62   11.12000    -8.63000  
2005   63   13.10000    -7.59000  
2005   64   11.93000    -1.91000  
2005   65    6.77000    -3.67000  
2005   66   11.87000    -4.96000  
2005   67   14.55000    -3.78000  
2005   68   17.07000    -3.51000  
2005   69   16.47000    -1.36000  
2005   70   14.39000    -1.90000  
2005   71    6.62000    -5.21000  
2005   72   17.73000    -5.44000  
2005   73   11.47000    -5.69000  
2005   74   16.86000    -5.79000  
2005   75   20.94000     1.90000  
2005   76   20.84000     1.17000  
2005   77   14.25000    -0.89000  
2005   78   12.51000    -0.79000  
2005   79   12.03000    -3.28000  
2005   80   13.09000    -5.36000  
2005   81   12.17000    -6.62000  
2005   82   16.97000    -5.77000  
2005   83   17.52000    -2.55000  
2005   84   20.40000     0.51000  
2005   85   15.00000     1.85000  
2005   86    7.82000    -0.68000  
2005   87   12.14000    -0.38000  
2005   88   11.66000     0.18000  
2005   89   10.44000    -1.03000  
2005   90    7.65000    -4.37000  
2005   91   12.59000    -6.44000  
2005   92   14.84000    -4.58000  
2005   93   17.24000    -2.22000  
2005   94   18.83000    -1.13000  
2005   95   21.01000     1.03000  
2005   96   23.56000     1.90000  
2005   97   19.06000     5.31000  
2005   98   21.80000     5.78000  
2005   99   15.83000     2.58000  
2005  100   14.26000     3.52000  
2005  101   16.61000     1.52000  
2005  102   17.88000    -0.82000  
2005  103   19.73000     1.05000  
2005  104   21.98000     2.77000  
2005  105   25.47000     4.26000  
2005  106   26.81000     7.42000  
2005  107   27.22000     9.52000  
2005  108   23.09000     2.69000  
2005  109   14.24000     0.21000  
2005  110    7.68000     0.46000  
2005  111   10.78000     0.46000  
2005  112   13.10000    -3.72000  
2005  113   20.67000    -0.70000  
2005  114   23.77000     1.54000  
2005  115   25.96000     5.97000  
2005  116   24.49000     7.70000  
2005  117   27.81000     9.99000  
2005  118   28.55000    10.66000  
2005  119   19.24000     6.30000  
2005  120   26.52000     8.87000  
2005  121   19.67000     4.91000  
2005  122   16.77000     1.00000  
2005  123   21.38000     4.80000  
2005  124   23.79000     7.73000  
2005  125   29.88000    11.12000  
2005  126   22.69000    11.15000  
2005  127   23.50000    12.71000  
2005  128   18.09000     5.43000  
2005  129   21.46000     4.67000  
2005  130   25.52000     6.68000  
2005  131   24.10000     5.69000  
2005  132   26.07000     7.87000  
2005  133   29.71000    12.63000  
2005  134   32.32000    13.21000  
2005  135   32.69000    16.21000  
2005  136   30.23000    15.36000  
2005  137   26.53000    11.23000  
2005  138   26.06000     8.57000  
2005  139   29.24000    11.77000  
2005  140   26.76000    15.07000  
2005  141   27.66000    12.76000  
2005  142   29.71000    12.16000  
2005  143   31.76000    13.40000  
2005  144   32.93000    15.89000  
2005  145   34.93000    16.92000  
2005  146   25.71000     8.97000  
2005  147   29.71000    12.71000  
2005  148   26.49000    10.47000  
2005  149   24.44000     7.34000  
2005  150   29.20000    13.43000  
2005  151   32.36000    16.82000  
2005  152   30.93000    14.79000  
2005  153   29.89000    13.89000  
2005  154   34.58000    17.35000  
2005  155   32.30000    20.59000  
2005  156   26.38000    11.76000  
2005  157   29.31000    15.06000  
2005  158   33.33000    16.58000  
2005  159   34.81000    16.71000  
2005  160   36.55000    17.09000  
2005  161   35.64000    20.40000  
2005  162   37.01000    19.41000  
2005  163   27.74000    14.44000  
2005  164   30.42000    12.90000  
2005  165   28.61000    13.36000  
2005  166   32.68000    16.36000  
2005  167   30.64000    14.52000  
2005  168   31.29000    14.20000  
2005  169   32.24000    17.09000  
2005  170   24.71000    12.29000  
2005  171   30.38000    16.96000  
2005  172   23.76000    10.59000  
2005  173   29.69000    12.24000  
2005  174   31.69000    14.78000  
2005  175   34.16000    19.43000  
2005  176   35.29000    23.00000  
2005  177   35.14000    19.06000  
2005  178   30.01000    18.14000  
2005  179   26.88000    15.63000  
2005  180   31.74000    16.91000  
2005  181   34.69000    18.44000  
2005  182   36.90000    22.79000  
2005  183   37.50000    23.65000  
2005  184   29.02000    16.03000  
2005  185   34.55000    16.67000  
2005  186   35.89000    19.14000  
2005  187   35.84000    19.08000  
2005  188   35.85000    22.39000  
2005  189   32.68000    22.30000  
2005  190   27.62000    16.08000  
2005  191   30.56000    17.96000  
2005  192   32.27000    16.00000  
2005  193   31.79000    15.62000  
2005  194   27.90000    13.87000  
2005  195   33.13000    16.42000  
2005  196   35.83000    20.34000  
2005  197   29.64000    16.20000  
2005  198   32.19000    18.42000  
2005  199   31.76000    17.76000  
2005  200   34.28000    19.81000  
2005  201   34.87000    20.82000  
2005  202   33.59000    20.35000  
2005  203   35.59000    21.19000  
2005  204   35.65000    24.26000  
2005  205   34.11000    21.81000  
2005  206   36.36000    23.56000  
2005  207   35.24000    23.23000  
2005  208   27.04000    17.44000  
2005  209   31.94000    19.86000  
2005  210   27.59000    17.62000  
2005  211   23.86000    18.43000  
2005  212   31.59000    18.76000  
2005  213   34.76000    18.68000  
2005  214   36.12000    19.57000  
2005  215   37.26000    21.08000  
2005  216   38.54000    20.10000  
2005  217   38.06000    22.05000  
2005  218   32.68000    21.14000  
2005  219   22.01000    14.29000  
2005  220   24.81000    11.23000  
2005  221   27.58000    12.85000  
2005  222   29.88000    16.02000  
2005  223   32.07000    14.82000  
2005  224   31.64000    14.09000  
2005  225   32.84000    15.45000  
2005  226   32.25000    18.18000  
2005  227   30.05000    13.83000  
2005  228   31.18000    15.68000  
2005  229   33.68000    16.49000  
2005  230   35.29000    19.15000  
2005  231   29.20000    14.94000  
2005  232   24.55000    13.18000  
2005  233   28.31000    12.54000  
2005  234   30.53000    15.54000  
2005  235   31.74000    14.95000  
2005  236   31.79000    13.86000  
2005  237   27.32000    11.25000  
2005  238   28.90000    11.19000  
2005  239   31.92000    13.44000  
2005  240   21.06000    10.69000  
2005  241   23.48000     6.69000  
2005  242   26.10000     7.76000  
2005  243   28.60000     9.58000  
2005  244   25.96000    11.43000  
2005  245   29.51000    13.64000  
2005  246   28.73000    10.96000  
2005  247   28.48000    11.86000  
2005  248   27.92000    13.91000  
2005  249   27.23000    14.05000  
2005  250   25.27000     8.31000  
2005  251   21.93000     9.05000  
2005  252   23.49000     5.78000  
2005  253   28.26000     7.80000  
2005  254   29.33000    10.36000  
2005  255   30.63000    11.88000  
2005  256   30.90000    12.28000  
2005  257   29.32000    11.73000  
2005  258   29.67000    10.38000  
2005  259   30.33000     9.40000  
2005  260   29.04000    10.71000  
2005  261   30.29000    12.54000  
2005  262   28.92000    15.04000  
2005  263   26.77000    12.72000  
2005  264   20.01000    13.06000  
2005  265   21.15000     9.69000  
2005  266   18.05000     9.94000  
2005  267   18.60000     9.85000  
2005  268   16.72000    10.21000  
2005  269   15.58000     4.84000  
2005  270   20.47000     5.19000  
2005  271   27.36000     7.02000  
2005  272   26.52000     7.38000  
2005  273   29.61000     8.12000  
2005  274   29.85000     9.52000  
2005  275   27.15000    10.04000  
2005  276   11.16000     5.72000  
2005  277   18.75000     5.99000  
2005  278   20.90000     5.57000  
2005  279   19.81000     5.61000  
2005  280   18.37000     1.23000  
2005  281   20.85000     1.63000  
2005  282   15.52000     1.36000  
2005  283   18.47000     0.93000  
2005  284   19.33000     0.83000  
2005  285   22.55000     3.90000  
2005  286   19.68000     4.50000  
2005  287   23.18000     2.92000  
2005  288   19.46000     3.43000  
2005  289   20.21000     2.61000  
2005  290   19.05000     1.14000  
2005  291   20.54000     1.20000  
2005  292   23.24000     0.44000  
2005  293   21.99000     1.36000  
2005  294    8.01000    -2.38000  
2005  295    9.62000    -7.59000  
2005  296   10.31000    -8.07000  
2005  297   14.62000    -6.16000  
2005  298   13.60000    -4.99000  
2005  299   14.10000    -6.30000  
2005  300   11.24000    -6.95000  
2005  301   13.79000    -5.07000  
2005  302   14.05000    -5.91000  
2005  303   13.45000    -6.38000  
2005  304   15.53000    -4.88000  
2005  305   13.70000    -3.64000  
2005  306   16.12000    -5.00000  
2005  307   13.34000    -5.27000  
2005  308   12.73000    -4.52000  
2005  309   13.36000    -2.25000  
2005  310   14.67000    -4.65000  
2005  311   11.81000    -4.96000  
2005  312   13.41000    -3.47000  
2005  313   12.96000    -3.83000  
2005  314   10.32000    -3.48000  
2005  315    9.54000    -3.01000  
2005  316    3.93000    -9.25000  
2005  317    6.51000    -9.50000  
2005  318    5.90000   -10.00000  
2005  319    6.70000    -9.43000  
2005  320    3.41000    -6.14000  
2005  321    2.20000   -12.28000  
2005  322    2.55000   -12.70000  
2005  323    5.70000   -13.99000  
2005  324    4.68000   -13.89000  
2005  325    5.58000   -12.61000  
2005  326    4.87000    -8.38000  
2005  327    5.88000   -13.29000  
2005  328    5.15000   -12.41000  
2005  329    3.05000   -11.37000  
2005  330    3.56000   -12.61000  
2005  331    6.35000   -12.31000  
2005  332    8.85000    -8.66000  
2005  333    8.83000    -8.66000  
2005  334    6.12000    -6.40000  
2005  335    8.20000    -6.38000  
2005  336    3.27000   -10.28000  
2005  337   -6.08000   -19.86000  
2005  338   -5.34000   -20.70000  
2005  339   -4.26000   -20.60000  
2005  340    2.29000   -10.13000  
2005  341    5.11000    -4.04000  
2005  342   11.33000    -3.54000  
2005  343   10.25000    -7.78000  
2005  344    4.20000   -11.01000  
2005  345    5.21000   -11.41000  
2005  346    1.56000   -11.64000  
2005  347   -0.46000   -13.67000  
2005  348    2.11000   -12.97000  
2005  349    5.12000    -9.69000  
2005  350    1.60000   -13.37000  
2005  351    1.71000   -13.94000  
2005  352    5.24000   -12.45000  
2005  353    1.85000   -10.18000  
2005  354   -3.20000   -17.38000  
2005  355   -9.08000   -16.99000  
2005  356   -8.48000   -16.71000  
2005  357   -1.38000   -15.23000  
2005  358   -2.24000   -15.33000  
2005  359   -2.92000   -16.23000  
2005  360   -2.24000   -11.85000  
2005  361  -10.44000   -19.06000  
2005  362   -6.89000   -24.79000  
2005  363  -10.37000   -24.72000  
2005  364  -10.40000   -24.57000  
2005  365   -9.72000   -22.98000  
2006    1   -5.51000   -21.82000  
2006    2   -3.99000   -20.01000  
2006    3   -1.49000   -19.83000  
2006    4   -2.54000   -19.66000  
2006    5   -0.33000   -19.40000  
2006    6   -0.70000   -16.02000  
2006    7    0.63000   -16.73000  
2006    8   -1.73000   -14.04000  
2006    9   -1.90000   -13.01000  
2006   10   -3.16000   -13.57000  
2006   11   -3.98000   -15.57000  
2006   12   -6.66000   -18.07000  
2006   13   -5.10000   -19.81000  
2006   14   -3.70000   -18.81000  
2006   15   -5.29000   -19.25000  
2006   16   -3.00000   -17.65000  
2006   17   -5.45000   -17.88000  
2006   18   -5.56000   -17.56000  
2006   19   -9.24000   -19.94000  
2006   20  -10.71000   -26.46000  
2006   21  -14.22000   -32.92000  
2006   22  -17.85000   -32.15000  
2006   23  -20.42000   -31.83000  
2006   24  -20.97000   -32.62000  
2006   25  -16.64000   -29.18000  
2006   26  -17.02000   -29.92000  
2006   27  -16.63000   -26.93000  
2006   28  -14.91000   -26.40000  
2006   29  -14.32000   -30.96000  
2006   30  -16.78000   -30.63000  
2006   31  -17.25000   -30.49000  
2006   32  -14.92000   -30.92000  
2006   33  -11.53000   -26.44000  
2006   34   -9.56000   -28.38000  
2006   35   -8.54000   -28.73000  
2006   36  -11.21000   -29.02000  
2006   37  -12.33000   -28.73000  
2006   38  -11.20000   -29.73000  
2006   39  -10.80000   -31.04000  
2006   40   -6.82000   -24.89000  
2006   41   -8.10000   -25.74000  
2006   42   -9.53000   -25.54000  
2006   43   -6.04000   -24.74000  
2006   44   -4.88000   -22.44000  
2006   45   -5.70000   -23.03000  
2006   46   -5.87000   -20.37000  
2006   47   -6.33000   -21.26000  
2006   48   -2.47000   -20.47000  
2006   49    0.93000   -16.68000  
2006   50    4.88000   -14.09000  
2006   51    7.97000    -9.13000  
2006   52    7.83000    -9.66000  
2006   53    8.61000   -10.48000  
2006   54    3.43000    -4.19000  
2006   55    3.66000   -10.35000  
2006   56    0.81000   -14.56000  
2006   57    3.95000   -15.25000  
2006   58    8.08000    -8.61000  
2006   59   11.07000    -7.12000  
2006   60    7.73000    -9.89000  
2006   61   11.09000    -9.97000  
2006   62   11.12000    -8.63000  
2006   63   13.10000    -7.59000  
2006   64   11.93000    -1.91000  
2006   65    6.77000    -3.67000  
2006   66   11.87000    -4.96000  
2006   67   14.55000    -3.78000  
2006   68   17.07000    -3.51000  
2006   69   16.47000    -1.36000  
2006   70   14.39000    -1.90000  
2006   71    6.62000    -5.21000  
2006   72   17.73000    -5.44000  
2006   73   11.47000    -5.69000  
2006   74   16.86000    -5.79000  
2006   75   20.94000     1.90000  
2006   76   20.84000     1.17000  
2006   77   14.25000    -0.89000  
2006   78   12.51000    -0.79000  
2006   79   12.03000    -3.28000  
2006   80   13.09000    -5.36000  
2006   81   12.17000    -6.62000  
2006   82   16.97000    -5.77000  
2006   83   17.52000    -2.55000  
2006   84   20.40000     0.51000  
2006   85   15.00000     1.85000  
2006   86    7.82000    -0.68000  
2006   87   12.14000    -0.38000  
2006   88   11.66000     0.18000  
2006   89   10.44000    -1.03000  
2006   90    7.65000    -4.37000  
2006   91   12.59000    -6.44000  
2006   92   14.84000    -4.58000  
2006   93   17.24000    -2.22000  
2006   94   18.83000    -1.13000  
2006   95   21.01000     1.03000  
2006   96   23.56000     1.90000  
2006   97   19.06000     5.31000  
2006   98   21.80000     5.78000  
2006   99   15.83000     2.58000  
2006  100   14.26000     3.52000  
2006  101   16.61000     1.52000  
2006  102   17.88000    -0.82000  
2006  103   19.73000     1.05000  
2006  104   21.98000     2.77000  
2006  105   25.47000     4.26000  
2006  106   26.81000     7.42000  
2006  107   27.22000     9.52000  
2006  108   23.09000     2.69000  
2006  109   14.24000     0.21000  
2006  110    7.68000     0.46000  
2006  111   10.78000     0.46000  
2006  112   13.10000    -3.72000  
2006  113   20.67000    -0.70000  
2006  114   23.77000     1.54000  
2006  115   25.96000     5.97000  
2006  116   24.49000     7.70000  
2006  117   27.81000     9.99000  
2006  118   28.55000    10.66000  
2006  119   19.24000     6.30000  
2006  120   26.52000     8.87000  
2006  121   19.67000     4.91000  
2006  122   16.77000     1.00000  
2006  123   21.38000     4.80000  
2006  124   23.79000     7.73000  
2006  125   29.88000    11.12000  
2006  126   22.69000    11.15000  
2006  127   23.50000    12.71000  
2006  128   18.09000     5.43000  
2006  129   21.46000     4.67000  
2006  130   25.52000     6.68000  
2006  131   24.10000     5.69000  
2006  132   26.07000     7.87000  
2006  133   29.71000    12.63000  
2006  134   32.32000    13.21000  
2006  135   32.69000    16.21000  
2006  136   30.23000    15.36000  
2006  137   26.53000    11.23000  
2006  138   26.06000     8.57000  
2006  139   29.24000    11.77000  
2006  140   26.76000    15.07000  
2006  141   27.66000    12.76000  
2006  142   29.71000    12.16000  
2006  143   31.76000    13.40000  
2006  144   32.93000    15.89000  
2006  145   34.93000    16.92000  
2006  146   25.71000     8.97000  
2006  147   29.71000    12.71000  
2006  148   26.49000    10.47000  
2006  149   24.44000     7.34000  
2006  150   29.20000    13.43000  
2006  151   32.36000    16.82000  
2006  152   30.93000    14.79000  
2006  153   29.89000    13.89000  
2006  154   34.58000    17.35000  
2006  155   32.30000    20.59000  
2006  156   26.38000    11.76000  
2006  157   29.31000    15.06000  
2006  158   33.33000    16.58000  
2006  159   34.81000    16.71000  
2006  160   36.55000    17.09000  
2006  161   35.64000    20.40000  
2006  162   37.01000    19.41000  
2006  163   27.74000    14.44000  
2006  164   30.42000    12.90000  
2006  165   28.61000    13.36000  
2006  166   32.68000    16.36000  
2006  167   30.64000    14.52000  
2006  168   31.29000    14.20000  
2006  169   32.24000    17.09000  
2006  170   24.71000    12.29000  
2006  171   30.38000    16.96000  
2006  172   23.76000    10.59000  
2006  173   29.69000    12.24000  
2006  174   31.69000    14.78000  
2006  175   34.16000    19.43000  
2006  176   35.29000    23.00000  
2006  177   35.14000    19.06000  
2006  178   30.01000    18.14000  
2006  179   26.88000    15.63000  
2006  180   31.74000    16.91000  
2006  181   34.69000    18.44000  
2006  182   36.90000    22.79000  
2006  183   37.50000    23.65000  
2006  184   29.02000    16.03000  
2006  185   34.55000    16.67000  
2006  186   35.89000    19.14000  
2006  187   35.84000    19.08000  
2006  188   35.85000    22.39000  
2006  189   32.68000    22.30000  
2006  190   27.62000    16.08000  
2006  191   30.56000    17.96000  
2006  192   32.27000    16.00000  
2006  193   31.79000    15.62000  
2006  194   27.90000    13.87000  
2006  195   33.13000    16.42000  
2006  196   35.83000    20.34000  
2006  197   29.64000    16.20000  
2006  198   32.19000    18.42000  
2006  199   31.76000    17.76000  
2006  200   34.28000    19.81000  
2006  201   34.87000    20.82000  
2006  202   33.59000    20.35000  
2006  203   35.59000    21.19000  
2006  204   35.65000    24.26000  
2006  205   34.11000    21.81000  
2006  206   36.36000    23.56000  
2006  207   35.24000    23.23000  
2006  208   27.04000    17.44000  
2006  209   31.94000    19.86000  
2006  210   27.59000    17.62000  
2006  211   23.86000    18.43000  
2006  212   31.59000    18.76000  
2006  213   34.76000    18.68000  
2006  214   36.12000    19.57000  
2006  215   37.26000    21.08000  
2006  216   38.54000    20.10000  
2006  217   38.06000    22.05000  
2006  218   32.68000    21.14000  
2006  219   22.01000    14.29000  
2006  220   24.81000    11.23000  
2006  221   27.58000    12.85000  
2006  222   29.88000    16.02000  
2006  223   32.07000    14.82000  
2006  224   31.64000    14.09000  
2006  225   32.84000    15.45000  
2006  226   32.25000    18.18000  
2006  227   30.05000    13.83000  
2006  228   31.18000    15.68000  
2006  229   33.68000    16.49000  
2006  230   35.29000    19.15000  
2006  231   29.20000    14.94000  
2006  232   24.55000    13.18000  
2006  233   28.31000    12.54000  
2006  234   30.53000    15.54000  
2006  235   31.74000    14.95000  
2006  236   31.79000    13.86000  
2006  237   27.32000    11.25000  
2006  238   28.90000    11.19000  
2006  239   31.92000    13.44000  
2006  240   21.06000    10.69000  
2006  241   23.48000     6.69000  
2006  242   26.10000     7.76000  
2006  243   28.60000     9.58000  
2006  244   25.96000    11.43000  
2006  245   29.51000    13.64000  
2006  246   28.73000    10.96000  
2006  247   28.48000    11.86000  
2006  248   27.92000    13.91000  
2006  249   27.23000    14.05000  
2006  250   25.27000     8.31000  
2006  251   21.93000     9.05000  
2006  252   23.49000     5.78000  
2006  253   28.26000     7.80000  
2006  254   29.33000    10.36000  
2006  255   30.63000    11.88000  
2006  256   30.90000    12.28000  
2006  257   29.32000    11.73000  
2006  258   29.67000    10.38000  
2006  259   30.33000     9.40000  
2006  260   29.04000    10.71000  
2006  261   30.29000    12.54000  
2006  262   28.92000    15.04000  
2006  263   26.77000    12.72000  
2006  264   20.01000    13.06000  
2006  265   21.15000     9.69000  
2006  266   18.05000     9.94000  
2006  267   18.60000     9.85000  
2006  268   16.72000    10.21000  
2006  269   15.58000     4.84000  
2006  270   20.47000     5.19000  
2006  271   27.36000     7.02000  
2006  272   26.52000     7.38000  
2006  273   29.61000     8.12000  
2006  274   29.85000     9.52000  
2006  275   27.15000    10.04000  
2006  276   11.16000     5.72000  
2006  277   18.75000     5.99000  
2006  278   20.90000     5.57000  
2006  279   19.81000     5.61000  
2006  280   18.37000     1.23000  
2006  281   20.85000     1.63000  
2006  282   15.52000     1.36000  
2006  283   18.47000     0.93000  
2006  284   19.33000     0.83000  
2006  285   22.55000     3.90000  
2006  286   19.68000     4.50000  
2006  287   23.18000     2.92000  
2006  288   19.46000     3.43000  
2006  289   20.21000     2.61000  
2006  290   19.05000     1.14000  
2006  291   20.54000     1.20000  
2006  292   23.24000     0.44000  
2006  293   21.99000     1.36000  
2006  294    8.01000    -2.38000  
2006  295    9.62000    -7.59000  
2006  296   10.31000    -8.07000  
2006  297   14.62000    -6.16000  
2006  298   13.60000    -4.99000  
2006  299   14.10000    -6.30000  
2006  300   11.24000    -6.95000  
2006  301   13.79000    -5.07000  
2006  302   14.05000    -5.91000  
2006  303   13.45000    -6.38000  
2006  304   15.53000    -4.88000  
2006  305   13.70000    -3.64000  
2006  306   16.12000    -5.00000  
2006  307   13.34000    -5.27000  
2006  308   12.73000    -4.52000  
2006  309   13.36000    -2.25000  
2006  310   14.67000    -4.65000  
2006  311   11.81000    -4.96000  
2006  312   13.41000    -3.47000  
2006  313   12.96000    -3.83000  
2006  314   10.32000    -3.48000  
2006  315    9.54000    -3.01000  
2006  316    3.93000    -9.25000  
2006  317    6.51000    -9.50000  
2006  318    5.90000   -10.00000  
2006  319    6.70000    -9.43000  
2006  320    3.41000    -6.14000  
2006  321    2.20000   -12.28000  
2006  322    2.55000   -12.70000  
2006  323    5.70000   -13.99000  
2006  324    4.68000   -13.89000  
2006  325    5.58000   -12.61000  
2006  326    4.87000    -8.38000  
2006  327    5.88000   -13.29000  
2006  328    5.15000   -12.41000  
2006  329    3.05000   -11.37000  
2006  330    3.56000   -12.61000  
2006  331    6.35000   -12.31000  
2006  332    8.85000    -8.66000  
2006  333    8.83000    -8.66000  
2006  334    6.12000    -6.40000  
2006  335    8.20000    -6.38000  
2006  336    3.27000   -10.28000  
2006  337   -6.08000   -19.86000  
2006  338   -5.34000   -20.70000  
2006  339   -4.26000   -20.60000  
2006  340    2.29000   -10.13000  
2006  341    5.11000    -4.04000  
2006  342   11.33000    -3.54000  
2006  343   10.25000    -7.78000  
2006  344    4.20000   -11.01000  
2006  345    5.21000   -11.41000  
2006  346    1.56000   -11.64000  
2006  347   -0.46000   -13.67000  
2006  348    2.11000   -12.97000  
2006  349    5.12000    -9.69000  
2006  350    1.60000   -13.37000  
2006  351    1.71000   -13.94000  
2006  352    5.24000   -12.45000  
2006  353    1.85000   -10.18000  
2006  354   -3.20000   -17.38000  
2006  355   -9.08000   -16.99000  
2006  356   -8.48000   -16.71000  
2006  357   -1.38000   -15.23000  
2006  358   -2.24000   -15.33000  
2006  359   -2.92000   -16.23000  
2006  360   -2.24000   -11.85000  
2006  361  -10.44000   -19.06000  
2006  362   -6.89000   -24.79000  
2006  363  -10.37000   -24.72000  
2006  364  -10.40000   -24.57000  
2006  365   -9.72000   -22.98000  
2007    1   -5.51000   -21.82000  
2007    2   -3.99000   -20.01000  
2007    3   -1.49000   -19.83000  
2007    4   -2.54000   -19.66000  
2007    5   -0.33000   -19.40000  
2007    6   -0.70000   -16.02000  
2007    7    0.63000   -16.73000  
2007    8   -1.73000   -14.04000  
2007    9   -1.90000   -13.01000  
2007   10   -3.16000   -13.57000  
2007   11   -3.98000   -15.57000  
2007   12   -6.66000   -18.07000  
2007   13   -5.10000   -19.81000  
2007   14   -3.70000   -18.81000  
2007   15   -5.29000   -19.25000  
2007   16   -3.00000   -17.65000  
2007   17   -5.45000   -17.88000  
2007   18   -5.56000   -17.56000  
2007   19   -9.24000   -19.94000  
2007   20  -10.71000   -26.46000  
2007   21  -14.22000   -32.92000  
2007   22  -17.85000   -32.15000  
2007   23  -20.42000   -31.83000  
2007   24  -20.97000   -32.62000  
2007   25  -16.64000   -29.18000  
2007   26  -17.02000   -29.92000  
2007   27  -16.63000   -26.93000  
2007   28  -14.91000   -26.40000  
2007   29  -14.32000   -30.96000  
2007   30  -16.78000   -30.63000  
2007   31  -17.25000   -30.49000  
2007   32  -14.92000   -30.92000  
2007   33  -11.53000   -26.44000  
2007   34   -9.56000   -28.38000  
2007   35   -8.54000   -28.73000  
2007   36  -11.21000   -29.02000  
2007   37  -12.33000   -28.73000  
2007   38  -11.20000   -29.73000  
2007   39  -10.80000   -31.04000  
2007   40   -6.82000   -24.89000  
2007   41   -8.10000   -25.74000  
2007   42   -9.53000   -25.54000  
2007   43   -6.04000   -24.74000  
2007   44   -4.88000   -22.44000  
2007   45   -5.70000   -23.03000  
2007   46   -5.87000   -20.37000  
2007   47   -6.33000   -21.26000  
2007   48   -2.47000   -20.47000  
2007   49    0.93000   -16.68000  
2007   50    4.88000   -14.09000  
2007   51    7.97000    -9.13000  
2007   52    7.83000    -9.66000  
2007   53    8.61000   -10.48000  
2007   54    3.43000    -4.19000  
2007   55    3.66000   -10.35000  
2007   56    0.81000   -14.56000  
2007   57    3.95000   -15.25000  
2007   58    8.08000    -8.61000  
2007   59   11.07000    -7.12000  
2007   60    7.73000    -9.89000  
2007   61   11.09000    -9.97000  
2007   62   11.12000    -8.63000  
2007   63   13.10000    -7.59000  
2007   64   11.93000    -1.91000  
2007   65    6.77000    -3.67000  
2007   66   11.87000    -4.96000  
2007   67   14.55000    -3.78000  
2007   68   17.07000    -3.51000  
2007   69   16.47000    -1.36000  
2007   70   14.39000    -1.90000  
2007   71    6.62000    -5.21000  
2007   72   17.73000    -5.44000  
2007   73   11.47000    -5.69000  
2007   74   16.86000    -5.79000  
2007   75   20.94000     1.90000  
2007   76   20.84000     1.17000  
2007   77   14.25000    -0.89000  
2007   78   12.51000    -0.79000  
2007   79   12.03000    -3.28000  
2007   80   13.09000    -5.36000  
2007   81   12.17000    -6.62000  
2007   82   16.97000    -5.77000  
2007   83   17.52000    -2.55000  
2007   84   20.40000     0.51000  
2007   85   15.00000     1.85000  
2007   86    7.82000    -0.68000  
2007   87   12.14000    -0.38000  
2007   88   11.66000     0.18000  
2007   89   10.44000    -1.03000  
2007   90    7.65000    -4.37000  
2007   91   12.59000    -6.44000  
2007   92   14.84000    -4.58000  
2007   93   17.24000    -2.22000  
2007   94   18.83000    -1.13000  
2007   95   21.01000     1.03000  
2007   96   23.56000     1.90000  
2007   97   19.06000     5.31000  
2007   98   21.80000     5.78000  