165150tmp.tem: Temperature data - file written by SWAT+ editor 2025-11-04 13:23:50.590000
nbyr     tstep       lat       lon      elev
  14         0    41.031    97.281  1791.000
2005    1   -7.99000   -23.89000  
2005    2   -7.12000   -21.97000  
2005    3   -7.37000   -21.12000  
2005    4   -5.57000   -21.86000  
2005    5   -6.71000   -21.95000  
2005    6   -4.47000   -19.50000  
2005    7   -6.54000   -19.72000  
2005    8   -4.20000   -19.15000  
2005    9   -5.30000   -16.96000  
2005   10   -8.15000   -18.77000  
2005   11   -7.05000   -17.28000  
2005   12   -8.05000   -18.59000  
2005   13   -5.28000   -20.21000  
2005   14   -6.44000   -21.14000  
2005   15   -9.01000   -19.66000  
2005   16   -6.02000   -18.73000  
2005   17  -10.26000   -19.84000  
2005   18  -10.76000   -18.69000  
2005   19  -12.95000   -24.42000  
2005   20  -15.78000   -29.66000  
2005   21  -16.06000   -33.35000  
2005   22  -19.13000   -33.03000  
2005   23  -23.29000   -32.84000  
2005   24  -24.13000   -32.18000  
2005   25  -21.67000   -30.33000  
2005   26  -20.68000   -31.21000  
2005   27  -16.42000   -28.86000  
2005   28  -15.78000   -26.04000  
2005   29  -15.83000   -29.89000  
2005   30  -16.33000   -29.49000  
2005   31  -16.15000   -30.91000  
2005   32  -14.38000   -31.20000  
2005   33  -11.05000   -26.05000  
2005   34  -12.75000   -26.93000  
2005   35   -9.48000   -27.30000  
2005   36   -7.82000   -27.43000  
2005   37  -11.25000   -28.87000  
2005   38  -11.36000   -28.64000  
2005   39   -8.53000   -28.55000  
2005   40   -5.95000   -26.38000  
2005   41   -8.30000   -25.87000  
2005   42   -9.03000   -25.79000  
2005   43   -8.12000   -23.30000  
2005   44   -5.27000   -23.49000  
2005   45   -5.83000   -23.90000  
2005   46   -6.94000   -19.50000  
2005   47   -5.67000   -19.53000  
2005   48   -2.24000   -18.52000  
2005   49    1.80000   -20.03000  
2005   50    2.53000   -15.20000  
2005   51    2.65000   -13.42000  
2005   52    7.44000   -12.09000  
2005   53    0.72000    -9.69000  
2005   54   -0.28000    -8.95000  
2005   55   -0.48000   -16.74000  
2005   56   -1.00000   -17.33000  
2005   57    1.91000   -17.56000  
2005   58    3.14000   -10.94000  
2005   59    7.90000   -10.42000  
2005   60    6.86000   -12.93000  
2005   61    8.49000   -11.08000  
2005   62    8.06000    -9.50000  
2005   63    9.36000    -9.06000  
2005   64    7.33000    -5.62000  
2005   65    8.03000    -6.95000  
2005   66    9.83000    -8.30000  
2005   67   12.27000    -8.08000  
2005   68   12.94000    -3.77000  
2005   69   12.87000    -5.26000  
2005   70    9.65000    -8.05000  
2005   71    1.51000    -8.65000  
2005   72   14.40000    -6.50000  
2005   73    7.55000    -6.28000  
2005   74   14.52000    -6.30000  
2005   75   18.02000    -1.35000  
2005   76   16.60000    -1.08000  
2005   77    9.16000    -3.26000  
2005   78    9.71000    -3.12000  
2005   79    7.29000    -7.56000  
2005   80   10.71000    -8.28000  
2005   81   10.72000    -8.19000  
2005   82   14.31000    -8.21000  
2005   83   15.73000    -4.47000  
2005   84   17.05000    -3.25000  
2005   85   11.81000    -3.97000  
2005   86    1.61000    -4.40000  
2005   87    7.65000    -4.33000  
2005   88    7.00000    -3.88000  
2005   89    3.09000    -7.25000  
2005   90    3.98000    -8.35000  
2005   91    8.08000   -10.13000  
2005   92   11.95000    -8.24000  
2005   93   12.69000    -5.85000  
2005   94   15.17000    -4.90000  
2005   95   17.97000    -1.90000  
2005   96   19.88000     0.48000  
2005   97   16.68000    -0.44000  
2005   98   18.79000    -0.16000  
2005   99   14.28000     0.25000  
2005  100    9.00000    -1.19000  
2005  101   12.32000    -4.41000  
2005  102   13.84000    -3.16000  
2005  103   15.84000    -0.04000  
2005  104   18.31000     0.06000  
2005  105   22.16000     1.64000  
2005  106   21.31000     1.98000  
2005  107   23.87000     4.90000  
2005  108   20.02000    -2.66000  
2005  109    8.84000    -5.61000  
2005  110    3.43000    -4.97000  
2005  111    7.56000    -7.90000  
2005  112   10.29000    -6.18000  
2005  113   16.87000    -5.00000  
2005  114   20.56000    -1.24000  
2005  115   21.92000     2.80000  
2005  116   20.25000     3.59000  
2005  117   23.41000     7.39000  
2005  118   23.75000     4.44000  
2005  119   15.59000     2.87000  
2005  120   24.53000     3.36000  
2005  121   14.45000     2.69000  
2005  122    8.04000    -3.72000  
2005  123   18.64000    -1.05000  
2005  124   22.88000     5.01000  
2005  125   26.23000     7.03000  
2005  126   18.77000     7.07000  
2005  127   19.67000     4.72000  
2005  128   15.31000    -0.25000  
2005  129   19.08000     0.49000  
2005  130   22.98000     3.65000  
2005  131   22.67000     4.21000  
2005  132   23.00000     5.86000  
2005  133   25.89000     7.97000  
2005  134   28.22000    10.82000  
2005  135   29.64000    12.06000  
2005  136   27.19000    11.56000  
2005  137   25.09000     7.93000  
2005  138   22.89000     5.66000  
2005  139   25.44000     7.90000  
2005  140   24.34000    11.11000  
2005  141   23.73000    10.61000  
2005  142   24.99000     9.05000  
2005  143   27.17000    10.35000  
2005  144   29.56000    11.02000  
2005  145   28.56000    10.20000  
2005  146   22.24000     5.62000  
2005  147   26.16000     8.27000  
2005  148   23.37000     7.83000  
2005  149   24.62000     6.02000  
2005  150   26.75000    10.47000  
2005  151   28.75000    14.30000  
2005  152   29.05000    11.91000  
2005  153   30.48000    11.40000  
2005  154   31.48000    16.28000  
2005  155   28.24000    15.07000  
2005  156   23.50000     9.06000  
2005  157   24.90000    13.58000  
2005  158   28.79000    12.38000  
2005  159   30.88000    12.50000  
2005  160   32.58000    18.18000  
2005  161   31.93000    15.23000  
2005  162   32.78000    13.49000  
2005  163   24.50000     8.64000  
2005  164   23.10000     7.32000  
2005  165   25.18000     8.38000  
2005  166   28.74000    10.95000  
2005  167   27.33000    13.14000  
2005  168   28.29000    11.48000  
2005  169   24.11000    11.72000  
2005  170   21.14000     7.52000  
2005  171   26.28000    13.10000  
2005  172   22.60000    10.10000  
2005  173   25.26000     7.39000  
2005  174   27.70000    11.56000  
2005  175   29.67000    16.48000  
2005  176   30.54000    17.39000  
2005  177   30.84000    15.25000  
2005  178   27.13000    15.74000  
2005  179   24.44000    12.42000  
2005  180   28.86000    13.02000  
2005  181   31.09000    14.69000  
2005  182   32.37000    18.41000  
2005  183   28.35000    17.93000  
2005  184   26.44000    11.00000  
2005  185   31.02000    12.52000  
2005  186   31.72000    12.72000  
2005  187   31.85000    13.25000  
2005  188   31.86000    18.11000  
2005  189   28.90000    15.58000  
2005  190   20.26000    10.40000  
2005  191   26.59000    13.10000  
2005  192   28.50000    13.32000  
2005  193   24.62000    10.66000  
2005  194   28.22000    12.21000  
2005  195   30.52000    12.42000  
2005  196   31.42000    15.53000  
2005  197   22.41000    11.37000  
2005  198   27.42000    11.13000  
2005  199   27.86000    11.85000  
2005  200   30.42000    15.38000  
2005  201   30.21000    17.70000  
2005  202   28.65000    14.61000  
2005  203   31.83000    18.74000  
2005  204   29.58000    17.06000  
2005  205   30.38000    18.84000  
2005  206   26.80000    15.93000  
2005  207   30.87000    16.51000  
2005  208   26.42000    13.32000  
2005  209   28.03000    16.10000  
2005  210   18.47000    12.75000  
2005  211   22.41000    13.36000  
2005  212   27.69000    13.73000  
2005  213   30.46000    13.29000  
2005  214   32.33000    14.98000  
2005  215   34.08000    17.10000  
2005  216   35.08000    16.36000  
2005  217   32.91000    15.55000  
2005  218   26.01000    13.73000  
2005  219   22.15000     8.31000  
2005  220   26.68000     8.99000  
2005  221   26.08000    11.11000  
2005  222   27.68000    10.16000  
2005  223   28.22000    10.16000  
2005  224   27.77000    11.51000  
2005  225   28.45000    12.62000  
2005  226   28.93000    14.69000  
2005  227   25.81000     9.78000  
2005  228   28.22000    12.93000  
2005  229   29.78000    14.47000  
2005  230   30.64000    17.04000  
2005  231   23.07000     9.21000  
2005  232   18.19000     6.41000  
2005  233   24.65000     7.35000  
2005  234   26.76000    10.16000  
2005  235   28.67000     9.26000  
2005  236   27.39000     9.00000  
2005  237   25.44000     7.53000  
2005  238   27.22000     8.78000  
2005  239   28.45000    10.59000  
2005  240   13.99000     6.02000  
2005  241   20.51000     2.91000  
2005  242   24.60000     5.88000  
2005  243   25.44000     7.79000  
2005  244   21.87000     8.89000  
2005  245   25.64000     9.47000  
2005  246   25.07000     6.12000  
2005  247   24.99000     8.09000  
2005  248   24.45000     9.60000  
2005  249   24.36000    10.15000  
2005  250   18.36000     4.85000  
2005  251   20.11000     4.11000  
2005  252   20.49000     3.21000  
2005  253   24.21000     4.59000  
2005  254   26.30000     5.40000  
2005  255   25.56000     6.36000  
2005  256   25.58000     5.82000  
2005  257   25.96000     6.02000  
2005  258   25.55000     6.83000  
2005  259   26.75000     6.39000  
2005  260   26.83000     7.34000  
2005  261   27.92000     8.58000  
2005  262   26.58000    12.04000  
2005  263   23.00000     7.64000  
2005  264   16.44000     8.10000  
2005  265   18.74000     6.27000  
2005  266   15.10000     6.76000  
2005  267   10.67000     4.90000  
2005  268   11.66000     5.77000  
2005  269   11.46000     2.42000  
2005  270   19.74000     3.23000  
2005  271   24.28000     4.64000  
2005  272   24.45000     4.57000  
2005  273   25.87000     3.45000  
2005  274   25.54000     6.57000  
2005  275   22.60000     6.46000  
2005  276   17.43000     6.12000  
2005  277   18.18000     2.91000  
2005  278   19.26000     2.77000  
2005  279   16.50000     5.34000  
2005  280   15.90000     0.54000  
2005  281   17.15000     1.01000  
2005  282   13.75000    -1.80000  
2005  283   14.93000    -1.78000  
2005  284   17.24000    -0.06000  
2005  285   18.73000     2.24000  
2005  286   17.12000     1.19000  
2005  287   18.51000     1.10000  
2005  288   16.86000     2.06000  
2005  289   16.46000     1.64000  
2005  290   15.68000    -0.84000  
2005  291   16.85000    -0.62000  
2005  292   18.74000    -0.38000  
2005  293   18.57000    -0.96000  
2005  294    5.04000    -5.75000  
2005  295    6.60000    -9.28000  
2005  296    8.92000    -9.70000  
2005  297   11.40000    -7.79000  
2005  298   10.96000    -5.53000  
2005  299   10.72000    -7.15000  
2005  300    9.15000    -7.34000  
2005  301    9.02000    -7.17000  
2005  302   11.57000    -7.83000  
2005  303   10.10000    -7.18000  
2005  304   10.73000    -5.72000  
2005  305   12.02000    -5.68000  
2005  306   13.19000    -6.20000  
2005  307   11.38000    -6.74000  
2005  308    7.77000    -5.57000  
2005  309    8.69000    -4.97000  
2005  310   10.96000    -5.77000  
2005  311    9.24000    -4.28000  
2005  312   11.32000    -3.18000  
2005  313    8.99000    -4.09000  
2005  314    5.62000    -4.88000  
2005  315    4.48000    -4.96000  
2005  316   -0.44000   -12.35000  
2005  317    2.33000   -11.89000  
2005  318    1.12000   -10.65000  
2005  319    2.60000   -10.64000  
2005  320   -0.05000   -13.28000  
2005  321   -0.17000   -14.50000  
2005  322   -0.46000   -14.41000  
2005  323    1.28000   -14.22000  
2005  324    2.64000   -13.92000  
2005  325    1.54000   -12.73000  
2005  326    1.53000    -9.41000  
2005  327    2.23000   -14.78000  
2005  328    3.93000   -15.86000  
2005  329    0.77000   -13.08000  
2005  330    1.30000   -14.38000  
2005  331    0.40000   -12.90000  
2005  332    4.72000   -10.09000  
2005  333    4.53000   -10.18000  
2005  334    2.32000    -9.84000  
2005  335    4.51000   -10.30000  
2005  336   -3.40000   -16.49000  
2005  337  -13.88000   -27.32000  
2005  338  -12.98000   -26.92000  
2005  339   -8.17000   -26.58000  
2005  340   -4.43000   -14.20000  
2005  341   -2.55000   -11.08000  
2005  342    2.85000    -8.75000  
2005  343    1.91000   -15.38000  
2005  344    1.25000   -16.06000  
2005  345   -0.45000   -13.80000  
2005  346   -1.47000   -12.12000  
2005  347   -3.75000   -14.50000  
2005  348    1.01000   -14.54000  
2005  349    0.08000   -12.88000  
2005  350   -2.37000   -16.77000  
2005  351   -2.12000   -17.51000  
2005  352   -1.53000   -14.60000  
2005  353   -3.88000   -14.25000  
2005  354   -4.10000   -21.31000  
2005  355  -16.67000   -21.45000  
2005  356  -10.29000   -21.23000  
2005  357   -4.50000   -20.94000  
2005  358   -5.77000   -20.30000  
2005  359   -9.82000   -19.12000  
2005  360   -8.56000   -13.91000  
2005  361  -13.00000   -26.19000  
2005  362  -14.89000   -27.03000  
2005  363  -13.16000   -23.07000  
2005  364  -13.91000   -25.70000  
2005  365  -10.56000   -25.73000  
2006    1   -7.99000   -23.89000  
2006    2   -7.12000   -21.97000  
2006    3   -7.37000   -21.12000  
2006    4   -5.57000   -21.86000  
2006    5   -6.71000   -21.95000  
2006    6   -4.47000   -19.50000  
2006    7   -6.54000   -19.72000  
2006    8   -4.20000   -19.15000  
2006    9   -5.30000   -16.96000  
2006   10   -8.15000   -18.77000  
2006   11   -7.05000   -17.28000  
2006   12   -8.05000   -18.59000  
2006   13   -5.28000   -20.21000  
2006   14   -6.44000   -21.14000  
2006   15   -9.01000   -19.66000  
2006   16   -6.02000   -18.73000  
2006   17  -10.26000   -19.84000  
2006   18  -10.76000   -18.69000  
2006   19  -12.95000   -24.42000  
2006   20  -15.78000   -29.66000  
2006   21  -16.06000   -33.35000  
2006   22  -19.13000   -33.03000  
2006   23  -23.29000   -32.84000  
2006   24  -24.13000   -32.18000  
2006   25  -21.67000   -30.33000  
2006   26  -20.68000   -31.21000  
2006   27  -16.42000   -28.86000  
2006   28  -15.78000   -26.04000  
2006   29  -15.83000   -29.89000  
2006   30  -16.33000   -29.49000  
2006   31  -16.15000   -30.91000  
2006   32  -14.38000   -31.20000  
2006   33  -11.05000   -26.05000  
2006   34  -12.75000   -26.93000  
2006   35   -9.48000   -27.30000  
2006   36   -7.82000   -27.43000  
2006   37  -11.25000   -28.87000  
2006   38  -11.36000   -28.64000  
2006   39   -8.53000   -28.55000  
2006   40   -5.95000   -26.38000  
2006   41   -8.30000   -25.87000  
2006   42   -9.03000   -25.79000  
2006   43   -8.12000   -23.30000  
2006   44   -5.27000   -23.49000  
2006   45   -5.83000   -23.90000  
2006   46   -6.94000   -19.50000  
2006   47   -5.67000   -19.53000  
2006   48   -2.24000   -18.52000  
2006   49    1.80000   -20.03000  
2006   50    2.53000   -15.20000  
2006   51    2.65000   -13.42000  
2006   52    7.44000   -12.09000  
2006   53    0.72000    -9.69000  
2006   54   -0.28000    -8.95000  
2006   55   -0.48000   -16.74000  
2006   56   -1.00000   -17.33000  
2006   57    1.91000   -17.56000  
2006   58    3.14000   -10.94000  
2006   59    7.90000   -10.42000  
2006   60    6.86000   -12.93000  
2006   61    8.49000   -11.08000  
2006   62    8.06000    -9.50000  
2006   63    9.36000    -9.06000  
2006   64    7.33000    -5.62000  
2006   65    8.03000    -6.95000  
2006   66    9.83000    -8.30000  
2006   67   12.27000    -8.08000  
2006   68   12.94000    -3.77000  
2006   69   12.87000    -5.26000  
2006   70    9.65000    -8.05000  
2006   71    1.51000    -8.65000  
2006   72   14.40000    -6.50000  
2006   73    7.55000    -6.28000  
2006   74   14.52000    -6.30000  
2006   75   18.02000    -1.35000  
2006   76   16.60000    -1.08000  
2006   77    9.16000    -3.26000  
2006   78    9.71000    -3.12000  
2006   79    7.29000    -7.56000  
2006   80   10.71000    -8.28000  
2006   81   10.72000    -8.19000  
2006   82   14.31000    -8.21000  
2006   83   15.73000    -4.47000  
2006   84   17.05000    -3.25000  
2006   85   11.81000    -3.97000  
2006   86    1.61000    -4.40000  
2006   87    7.65000    -4.33000  
2006   88    7.00000    -3.88000  
2006   89    3.09000    -7.25000  
2006   90    3.98000    -8.35000  
2006   91    8.08000   -10.13000  
2006   92   11.95000    -8.24000  
2006   93   12.69000    -5.85000  
2006   94   15.17000    -4.90000  
2006   95   17.97000    -1.90000  
2006   96   19.88000     0.48000  
2006   97   16.68000    -0.44000  
2006   98   18.79000    -0.16000  
2006   99   14.28000     0.25000  
2006  100    9.00000    -1.19000  
2006  101   12.32000    -4.41000  
2006  102   13.84000    -3.16000  
2006  103   15.84000    -0.04000  
2006  104   18.31000     0.06000  
2006  105   22.16000     1.64000  
2006  106   21.31000     1.98000  
2006  107   23.87000     4.90000  
2006  108   20.02000    -2.66000  
2006  109    8.84000    -5.61000  
2006  110    3.43000    -4.97000  
2006  111    7.56000    -7.90000  
2006  112   10.29000    -6.18000  
2006  113   16.87000    -5.00000  
2006  114   20.56000    -1.24000  
2006  115   21.92000     2.80000  
2006  116   20.25000     3.59000  
2006  117   23.41000     7.39000  
2006  118   23.75000     4.44000  
2006  119   15.59000     2.87000  
2006  120   24.53000     3.36000  
2006  121   14.45000     2.69000  
2006  122    8.04000    -3.72000  
2006  123   18.64000    -1.05000  
2006  124   22.88000     5.01000  
2006  125   26.23000     7.03000  
2006  126   18.77000     7.07000  
2006  127   19.67000     4.72000  
2006  128   15.31000    -0.25000  
2006  129   19.08000     0.49000  
2006  130   22.98000     3.65000  
2006  131   22.67000     4.21000  
2006  132   23.00000     5.86000  
2006  133   25.89000     7.97000  
2006  134   28.22000    10.82000  
2006  135   29.64000    12.06000  
2006  136   27.19000    11.56000  
2006  137   25.09000     7.93000  
2006  138   22.89000     5.66000  
2006  139   25.44000     7.90000  
2006  140   24.34000    11.11000  
2006  141   23.73000    10.61000  
2006  142   24.99000     9.05000  
2006  143   27.17000    10.35000  
2006  144   29.56000    11.02000  
2006  145   28.56000    10.20000  
2006  146   22.24000     5.62000  
2006  147   26.16000     8.27000  
2006  148   23.37000     7.83000  
2006  149   24.62000     6.02000  
2006  150   26.75000    10.47000  
2006  151   28.75000    14.30000  
2006  152   29.05000    11.91000  
2006  153   30.48000    11.40000  
2006  154   31.48000    16.28000  
2006  155   28.24000    15.07000  
2006  156   23.50000     9.06000  
2006  157   24.90000    13.58000  
2006  158   28.79000    12.38000  
2006  159   30.88000    12.50000  
2006  160   32.58000    18.18000  
2006  161   31.93000    15.23000  
2006  162   32.78000    13.49000  
2006  163   24.50000     8.64000  
2006  164   23.10000     7.32000  
2006  165   25.18000     8.38000  
2006  166   28.74000    10.95000  
2006  167   27.33000    13.14000  
2006  168   28.29000    11.48000  
2006  169   24.11000    11.72000  
2006  170   21.14000     7.52000  
2006  171   26.28000    13.10000  
2006  172   22.60000    10.10000  
2006  173   25.26000     7.39000  
2006  174   27.70000    11.56000  
2006  175   29.67000    16.48000  
2006  176   30.54000    17.39000  
2006  177   30.84000    15.25000  
2006  178   27.13000    15.74000  
2006  179   24.44000    12.42000  
2006  180   28.86000    13.02000  
2006  181   31.09000    14.69000  
2006  182   32.37000    18.41000  
2006  183   28.35000    17.93000  
2006  184   26.44000    11.00000  
2006  185   31.02000    12.52000  
2006  186   31.72000    12.72000  
2006  187   31.85000    13.25000  
2006  188   31.86000    18.11000  
2006  189   28.90000    15.58000  
2006  190   20.26000    10.40000  
2006  191   26.59000    13.10000  
2006  192   28.50000    13.32000  
2006  193   24.62000    10.66000  
2006  194   28.22000    12.21000  
2006  195   30.52000    12.42000  
2006  196   31.42000    15.53000  
2006  197   22.41000    11.37000  
2006  198   27.42000    11.13000  
2006  199   27.86000    11.85000  
2006  200   30.42000    15.38000  
2006  201   30.21000    17.70000  
2006  202   28.65000    14.61000  
2006  203   31.83000    18.74000  
2006  204   29.58000    17.06000  
2006  205   30.38000    18.84000  
2006  206   26.80000    15.93000  
2006  207   30.87000    16.51000  
2006  208   26.42000    13.32000  
2006  209   28.03000    16.10000  
2006  210   18.47000    12.75000  
2006  211   22.41000    13.36000  
2006  212   27.69000    13.73000  
2006  213   30.46000    13.29000  
2006  214   32.33000    14.98000  
2006  215   34.08000    17.10000  
2006  216   35.08000    16.36000  
2006  217   32.91000    15.55000  
2006  218   26.01000    13.73000  
2006  219   22.15000     8.31000  
2006  220   26.68000     8.99000  
2006  221   26.08000    11.11000  
2006  222   27.68000    10.16000  
2006  223   28.22000    10.16000  
2006  224   27.77000    11.51000  
2006  225   28.45000    12.62000  
2006  226   28.93000    14.69000  
2006  227   25.81000     9.78000  
2006  228   28.22000    12.93000  
2006  229   29.78000    14.47000  
2006  230   30.64000    17.04000  
2006  231   23.07000     9.21000  
2006  232   18.19000     6.41000  
2006  233   24.65000     7.35000  
2006  234   26.76000    10.16000  
2006  235   28.67000     9.26000  
2006  236   27.39000     9.00000  
2006  237   25.44000     7.53000  
2006  238   27.22000     8.78000  
2006  239   28.45000    10.59000  
2006  240   13.99000     6.02000  
2006  241   20.51000     2.91000  
2006  242   24.60000     5.88000  
2006  243   25.44000     7.79000  
2006  244   21.87000     8.89000  
2006  245   25.64000     9.47000  
2006  246   25.07000     6.12000  
2006  247   24.99000     8.09000  
2006  248   24.45000     9.60000  
2006  249   24.36000    10.15000  
2006  250   18.36000     4.85000  
2006  251   20.11000     4.11000  
2006  252   20.49000     3.21000  
2006  253   24.21000     4.59000  
2006  254   26.30000     5.40000  
2006  255   25.56000     6.36000  
2006  256   25.58000     5.82000  
2006  257   25.96000     6.02000  
2006  258   25.55000     6.83000  
2006  259   26.75000     6.39000  
2006  260   26.83000     7.34000  
2006  261   27.92000     8.58000  
2006  262   26.58000    12.04000  
2006  263   23.00000     7.64000  
2006  264   16.44000     8.10000  
2006  265   18.74000     6.27000  
2006  266   15.10000     6.76000  
2006  267   10.67000     4.90000  
2006  268   11.66000     5.77000  
2006  269   11.46000     2.42000  
2006  270   19.74000     3.23000  
2006  271   24.28000     4.64000  
2006  272   24.45000     4.57000  
2006  273   25.87000     3.45000  
2006  274   25.54000     6.57000  
2006  275   22.60000     6.46000  
2006  276   17.43000     6.12000  
2006  277   18.18000     2.91000  
2006  278   19.26000     2.77000  
2006  279   16.50000     5.34000  
2006  280   15.90000     0.54000  
2006  281   17.15000     1.01000  
2006  282   13.75000    -1.80000  
2006  283   14.93000    -1.78000  
2006  284   17.24000    -0.06000  
2006  285   18.73000     2.24000  
2006  286   17.12000     1.19000  
2006  287   18.51000     1.10000  
2006  288   16.86000     2.06000  
2006  289   16.46000     1.64000  
2006  290   15.68000    -0.84000  
2006  291   16.85000    -0.62000  
2006  292   18.74000    -0.38000  
2006  293   18.57000    -0.96000  
2006  294    5.04000    -5.75000  
2006  295    6.60000    -9.28000  
2006  296    8.92000    -9.70000  
2006  297   11.40000    -7.79000  
2006  298   10.96000    -5.53000  
2006  299   10.72000    -7.15000  
2006  300    9.15000    -7.34000  
2006  301    9.02000    -7.17000  
2006  302   11.57000    -7.83000  
2006  303   10.10000    -7.18000  
2006  304   10.73000    -5.72000  
2006  305   12.02000    -5.68000  
2006  306   13.19000    -6.20000  
2006  307   11.38000    -6.74000  
2006  308    7.77000    -5.57000  
2006  309    8.69000    -4.97000  
2006  310   10.96000    -5.77000  
2006  311    9.24000    -4.28000  
2006  312   11.32000    -3.18000  
2006  313    8.99000    -4.09000  
2006  314    5.62000    -4.88000  
2006  315    4.48000    -4.96000  
2006  316   -0.44000   -12.35000  
2006  317    2.33000   -11.89000  
2006  318    1.12000   -10.65000  
2006  319    2.60000   -10.64000  
2006  320   -0.05000   -13.28000  
2006  321   -0.17000   -14.50000  
2006  322   -0.46000   -14.41000  
2006  323    1.28000   -14.22000  
2006  324    2.64000   -13.92000  
2006  325    1.54000   -12.73000  
2006  326    1.53000    -9.41000  
2006  327    2.23000   -14.78000  
2006  328    3.93000   -15.86000  
2006  329    0.77000   -13.08000  
2006  330    1.30000   -14.38000  
2006  331    0.40000   -12.90000  
2006  332    4.72000   -10.09000  
2006  333    4.53000   -10.18000  
2006  334    2.32000    -9.84000  
2006  335    4.51000   -10.30000  
2006  336   -3.40000   -16.49000  
2006  337  -13.88000   -27.32000  
2006  338  -12.98000   -26.92000  
2006  339   -8.17000   -26.58000  
2006  340   -4.43000   -14.20000  
2006  341   -2.55000   -11.08000  
2006  342    2.85000    -8.75000  
2006  343    1.91000   -15.38000  
2006  344    1.25000   -16.06000  
2006  345   -0.45000   -13.80000  
2006  346   -1.47000   -12.12000  
2006  347   -3.75000   -14.50000  
2006  348    1.01000   -14.54000  
2006  349    0.08000   -12.88000  
2006  350   -2.37000   -16.77000  
2006  351   -2.12000   -17.51000  
2006  352   -1.53000   -14.60000  
2006  353   -3.88000   -14.25000  
2006  354   -4.10000   -21.31000  
2006  355  -16.67000   -21.45000  
2006  356  -10.29000   -21.23000  
2006  357   -4.50000   -20.94000  
2006  358   -5.77000   -20.30000  
2006  359   -9.82000   -19.12000  
2006  360   -8.56000   -13.91000  
2006  361  -13.00000   -26.19000  
2006  362  -14.89000   -27.03000  
2006  363  -13.16000   -23.07000  
2006  364  -13.91000   -25.70000  
2006  365  -10.56000   -25.73000  
2007    1   -7.99000   -23.89000  
2007    2   -7.12000   -21.97000  
2007    3   -7.37000   -21.12000  
2007    4   -5.57000   -21.86000  
2007    5   -6.71000   -21.95000  
2007    6   -4.47000   -19.50000  
2007    7   -6.54000   -19.72000  
2007    8   -4.20000   -19.15000  
2007    9   -5.30000   -16.96000  
2007   10   -8.15000   -18.77000  
2007   11   -7.05000   -17.28000  
2007   12   -8.05000   -18.59000  
2007   13   -5.28000   -20.21000  
2007   14   -6.44000   -21.14000  
2007   15   -9.01000   -19.66000  
2007   16   -6.02000   -18.73000  
2007   17  -10.26000   -19.84000  
2007   18  -10.76000   -18.69000  
2007   19  -12.95000   -24.42000  
2007   20  -15.78000   -29.66000  
2007   21  -16.06000   -33.35000  
2007   22  -19.13000   -33.03000  
2007   23  -23.29000   -32.84000  
2007   24  -24.13000   -32.18000  
2007   25  -21.67000   -30.33000  
2007   26  -20.68000   -31.21000  
2007   27  -16.42000   -28.86000  
2007   28  -15.78000   -26.04000  
2007   29  -15.83000   -29.89000  
2007   30  -16.33000   -29.49000  
2007   31  -16.15000   -30.91000  
2007   32  -14.38000   -31.20000  
2007   33  -11.05000   -26.05000  
2007   34  -12.75000   -26.93000  
2007   35   -9.48000   -27.30000  
2007   36   -7.82000   -27.43000  
2007   37  -11.25000   -28.87000  
2007   38  -11.36000   -28.64000  
2007   39   -8.53000   -28.55000  
2007   40   -5.95000   -26.38000  
2007   41   -8.30000   -25.87000  
2007   42   -9.03000   -25.79000  
2007   43   -8.12000   -23.30000  
2007   44   -5.27000   -23.49000  
2007   45   -5.83000   -23.90000  
2007   46   -6.94000   -19.50000  
2007   47   -5.67000   -19.53000  
2007   48   -2.24000   -18.52000  
2007   49    1.80000   -20.03000  
2007   50    2.53000   -15.20000  
2007   51    2.65000   -13.42000  
2007   52    7.44000   -12.09000  
2007   53    0.72000    -9.69000  
2007   54   -0.28000    -8.95000  
2007   55   -0.48000   -16.74000  
2007   56   -1.00000   -17.33000  
2007   57    1.91000   -17.56000  
2007   58    3.14000   -10.94000  
2007   59    7.90000   -10.42000  
2007   60    6.86000   -12.93000  
2007   61    8.49000   -11.08000  
2007   62    8.06000    -9.50000  
2007   63    9.36000    -9.06000  
2007   64    7.33000    -5.62000  
2007   65    8.03000    -6.95000  
2007   66    9.83000    -8.30000  
2007   67   12.27000    -8.08000  
2007   68   12.94000    -3.77000  
2007   69   12.87000    -5.26000  
2007   70    9.65000    -8.05000  
2007   71    1.51000    -8.65000  
2007   72   14.40000    -6.50000  
2007   73    7.55000    -6.28000  
2007   74   14.52000    -6.30000  
2007   75   18.02000    -1.35000  
2007   76   16.60000    -1.08000  
2007   77    9.16000    -3.26000  
2007   78    9.71000    -3.12000  
2007   79    7.29000    -7.56000  
2007   80   10.71000    -8.28000  
2007   81   10.72000    -8.19000  
2007   82   14.31000    -8.21000  
2007   83   15.73000    -4.47000  
2007   84   17.05000    -3.25000  
2007   85   11.81000    -3.97000  
2007   86    1.61000    -4.40000  
2007   87    7.65000    -4.33000  
2007   88    7.00000    -3.88000  
2007   89    3.09000    -7.25000  
2007   90    3.98000    -8.35000  
2007   91    8.08000   -10.13000  
2007   92   11.95000    -8.24000  
2007   93   12.69000    -5.85000  
2007   94   15.17000    -4.90000  
2007   95   17.97000    -1.90000  
2007   96   19.88000     0.48000  
2007   97   16.68000    -0.44000  
2007   98   18.79000    -0.16000  