167164tmp.tem: Temperature data - file written by SWAT+ editor 2025-11-04 13:23:50.669524
nbyr     tstep       lat       lon      elev
  14         0    41.531   100.781  1000.000
2005    1   -5.93000   -23.15000  
2005    2   -5.03000   -21.93000  
2005    3   -4.54000   -21.64000  
2005    4   -5.86000   -19.37000  
2005    5   -2.83000   -18.99000  
2005    6   -1.36000   -16.29000  
2005    7   -2.55000   -16.08000  
2005    8   -2.59000   -14.84000  
2005    9   -3.88000   -14.88000  
2005   10   -2.79000   -13.94000  
2005   11   -3.54000   -14.13000  
2005   12   -5.73000   -17.22000  
2005   13   -6.00000   -18.67000  
2005   14   -5.13000   -19.00000  
2005   15   -7.36000   -19.04000  
2005   16   -6.33000   -19.36000  
2005   17   -8.63000   -19.71000  
2005   18   -6.64000   -18.80000  
2005   19   -6.37000   -14.09000  
2005   20  -11.28000   -23.47000  
2005   21  -12.94000   -31.39000  
2005   22  -17.68000   -31.73000  
2005   23  -19.17000   -30.91000  
2005   24  -20.15000   -31.75000  
2005   25  -16.65000   -27.89000  
2005   26  -15.65000   -28.74000  
2005   27  -14.14000   -27.06000  
2005   28  -13.13000   -26.07000  
2005   29  -13.21000   -27.74000  
2005   30  -14.77000   -31.86000  
2005   31  -15.85000   -31.47000  
2005   32  -15.32000   -28.98000  
2005   33  -10.29000   -26.69000  
2005   34  -11.65000   -25.63000  
2005   35   -8.35000   -26.65000  
2005   36  -11.33000   -27.10000  
2005   37  -12.18000   -25.80000  
2005   38   -9.75000   -26.49000  
2005   39   -8.07000   -27.03000  
2005   40   -4.95000   -22.41000  
2005   41   -7.61000   -23.89000  
2005   42   -7.33000   -24.93000  
2005   43   -5.57000   -24.30000  
2005   44   -3.15000   -18.92000  
2005   45   -3.62000   -20.14000  
2005   46   -3.33000   -19.77000  
2005   47   -2.35000   -17.63000  
2005   48   -0.59000   -16.58000  
2005   49    2.95000   -14.21000  
2005   50    6.83000   -13.34000  
2005   51    6.89000    -6.99000  
2005   52    5.18000    -8.13000  
2005   53    5.48000    -7.56000  
2005   54    3.30000    -5.47000  
2005   55    4.44000   -11.78000  
2005   56    1.90000   -12.36000  
2005   57    5.14000   -12.69000  
2005   58    7.39000    -8.10000  
2005   59    9.87000    -6.38000  
2005   60    6.65000    -8.85000  
2005   61   10.36000    -8.89000  
2005   62   11.41000    -7.26000  
2005   63   13.47000    -5.81000  
2005   64   11.47000    -1.46000  
2005   65    7.29000    -3.56000  
2005   66   10.31000    -4.29000  
2005   67   15.98000    -3.20000  
2005   68   16.64000    -2.07000  
2005   69   16.35000     1.01000  
2005   70   13.51000    -2.88000  
2005   71    6.87000    -3.37000  
2005   72   16.24000    -2.41000  
2005   73   10.94000    -3.93000  
2005   74   16.47000    -3.64000  
2005   75   19.41000     1.18000  
2005   76   19.57000    -0.20000  
2005   77   11.22000    -0.50000  
2005   78   12.66000     0.08000  
2005   79   11.25000    -2.18000  
2005   80   12.64000    -4.57000  
2005   81   12.29000    -4.75000  
2005   82   16.99000    -2.94000  
2005   83   16.82000     0.06000  
2005   84   19.42000     1.64000  
2005   85   15.85000     3.25000  
2005   86   11.10000    -1.54000  
2005   87   10.97000    -0.92000  
2005   88    8.48000     0.28000  
2005   89   11.32000    -0.30000  
2005   90    6.55000    -3.82000  
2005   91   12.12000    -4.97000  
2005   92   15.37000    -2.77000  
2005   93   17.61000    -0.77000  
2005   94   19.35000     0.45000  
2005   95   20.33000     1.65000  
2005   96   22.44000     3.27000  
2005   97   19.79000     7.05000  
2005   98   23.02000     7.62000  
2005   99   15.30000     2.38000  
2005  100   15.61000     3.47000  
2005  101   17.77000     2.50000  
2005  102   19.09000     0.86000  
2005  103   21.89000     3.86000  
2005  104   24.42000     5.00000  
2005  105   27.07000     7.02000  
2005  106   27.67000    10.45000  
2005  107   28.49000    12.19000  
2005  108   23.36000     3.75000  
2005  109   14.38000     0.36000  
2005  110    7.63000     0.39000  
2005  111   11.66000     0.25000  
2005  112   14.73000    -0.67000  
2005  113   20.78000     1.69000  
2005  114   24.36000     4.40000  
2005  115   26.55000     8.62000  
2005  116   26.43000    10.05000  
2005  117   28.61000    12.26000  
2005  118   29.90000    12.27000  
2005  119   17.60000     7.59000  
2005  120   26.34000    10.35000  
2005  121   18.61000     4.96000  
2005  122   14.97000     2.52000  
2005  123   19.53000     4.59000  
2005  124   23.20000     8.21000  
2005  125   29.75000    13.05000  
2005  126   23.20000    11.63000  
2005  127   23.76000    13.23000  
2005  128   18.67000     5.43000  
2005  129   21.23000     6.24000  
2005  130   25.01000     6.29000  
2005  131   22.33000     6.48000  
2005  132   26.10000    10.67000  
2005  133   32.10000    15.16000  
2005  134   34.21000    13.25000  
2005  135   33.06000    15.78000  
2005  136   29.26000    15.14000  
2005  137   27.32000    13.10000  
2005  138   26.95000    10.52000  
2005  139   29.56000    12.74000  
2005  140   26.93000    14.75000  
2005  141   28.60000    13.46000  
2005  142   30.80000    13.24000  
2005  143   32.85000    16.29000  
2005  144   34.32000    18.01000  
2005  145   36.07000    16.67000  
2005  146   25.66000     9.71000  
2005  147   31.44000    14.94000  
2005  148   26.81000     9.19000  
2005  149   25.09000     8.36000  
2005  150   30.44000    14.37000  
2005  151   32.43000    17.73000  
2005  152   31.31000    14.94000  
2005  153   30.09000    15.11000  
2005  154   33.68000    18.47000  
2005  155   32.66000    19.81000  
2005  156   25.47000    13.52000  
2005  157   30.47000    16.88000  
2005  158   34.69000    20.37000  
2005  159   36.43000    18.29000  
2005  160   37.75000    19.57000  
2005  161   37.11000    20.93000  
2005  162   38.88000    21.26000  
2005  163   28.36000    14.91000  
2005  164   32.13000    15.53000  
2005  165   29.37000    14.25000  
2005  166   33.74000    16.74000  
2005  167   31.35000    14.42000  
2005  168   31.59000    14.74000  
2005  169   33.68000    19.64000  
2005  170   25.88000    13.88000  
2005  171   31.54000    16.74000  
2005  172   23.20000    13.33000  
2005  173   28.88000    13.23000  
2005  174   32.22000    17.82000  
2005  175   34.97000    19.06000  
2005  176   35.43000    20.91000  
2005  177   36.21000    19.39000  
2005  178   30.65000    19.75000  
2005  179   27.75000    15.48000  
2005  180   33.26000    17.24000  
2005  181   35.87000    19.06000  
2005  182   36.97000    21.77000  
2005  183   37.49000    25.60000  
2005  184   28.59000    16.75000  
2005  185   35.48000    19.28000  
2005  186   37.31000    20.47000  
2005  187   36.45000    20.02000  
2005  188   36.15000    22.90000  
2005  189   33.84000    23.62000  
2005  190   31.58000    18.84000  
2005  191   31.20000    16.47000  
2005  192   32.86000    18.55000  
2005  193   33.94000    18.59000  
2005  194   24.58000    14.37000  
2005  195   33.48000    17.80000  
2005  196   36.93000    22.01000  
2005  197   33.03000    21.77000  
2005  198   31.75000    19.77000  
2005  199   32.30000    20.03000  
2005  200   34.23000    21.37000  
2005  201   36.25000    22.07000  
2005  202   35.98000    21.91000  
2005  203   37.12000    24.24000  
2005  204   35.57000    24.38000  
2005  205   34.57000    22.66000  
2005  206   38.32000    24.21000  
2005  207   35.73000    24.34000  
2005  208   31.49000    17.93000  
2005  209   31.09000    19.80000  
2005  210   28.58000    20.86000  
2005  211   27.01000    18.37000  
2005  212   35.44000    20.20000  
2005  213   36.45000    20.64000  
2005  214   38.21000    23.35000  
2005  215   38.90000    24.89000  
2005  216   40.26000    22.92000  
2005  217   39.47000    24.13000  
2005  218   34.39000    21.56000  
2005  219   26.14000    15.64000  
2005  220   21.10000    12.63000  
2005  221   27.83000    14.37000  
2005  222   30.88000    16.55000  
2005  223   33.42000    17.81000  
2005  224   33.49000    16.79000  
2005  225   34.91000    18.14000  
2005  226   33.88000    20.23000  
2005  227   30.72000    16.19000  
2005  228   32.62000    17.33000  
2005  229   34.65000    17.87000  
2005  230   36.26000    20.89000  
2005  231   31.20000    15.27000  
2005  232   24.72000    14.05000  
2005  233   29.30000    15.19000  
2005  234   31.45000    17.25000  
2005  235   32.16000    17.30000  
2005  236   32.56000    17.86000  
2005  237   27.83000    12.08000  
2005  238   28.55000    12.45000  
2005  239   31.63000    14.65000  
2005  240   24.16000    11.55000  
2005  241   21.63000     7.49000  
2005  242   26.49000    10.24000  
2005  243   28.70000    12.26000  
2005  244   28.20000    13.49000  
2005  245   29.15000    14.78000  
2005  246   28.85000    12.76000  
2005  247   28.36000    14.47000  
2005  248   29.01000    16.37000  
2005  249   27.26000    14.35000  
2005  250   26.68000     9.44000  
2005  251   22.44000    10.29000  
2005  252   22.73000     9.01000  
2005  253   28.45000     9.72000  
2005  254   30.39000    11.27000  
2005  255   31.89000    13.34000  
2005  256   31.74000    14.46000  
2005  257   29.32000    13.05000  
2005  258   30.50000    12.02000  
2005  259   30.77000    12.53000  
2005  260   29.34000    13.73000  
2005  261   30.80000    15.12000  
2005  262   29.54000    15.31000  
2005  263   27.97000    15.95000  
2005  264   24.27000    15.65000  
2005  265   21.70000    10.50000  
2005  266   20.38000    11.11000  
2005  267   20.59000    12.97000  
2005  268   18.78000    11.48000  
2005  269   16.59000     8.78000  
2005  270   20.88000     8.81000  
2005  271   27.22000     9.99000  
2005  272   26.84000    10.48000  
2005  273   29.87000    11.14000  
2005  274   30.84000    11.82000  
2005  275   27.97000    12.14000  
2005  276   13.21000     6.72000  
2005  277   16.81000     7.69000  
2005  278   18.90000     6.24000  
2005  279   19.94000     6.79000  
2005  280   16.94000     1.93000  
2005  281   19.85000     2.81000  
2005  282   15.16000     1.60000  
2005  283   18.08000     2.07000  
2005  284   19.84000     3.00000  
2005  285   21.59000     5.52000  
2005  286   19.54000     5.68000  
2005  287   21.81000     6.11000  
2005  288   19.95000     3.85000  
2005  289   20.79000     3.58000  
2005  290   17.37000     3.98000  
2005  291   21.05000     3.59000  
2005  292   23.01000     3.61000  
2005  293   22.16000     3.50000  
2005  294    8.37000     0.74000  
2005  295    8.67000    -5.96000  
2005  296    9.94000    -6.06000  
2005  297   14.75000    -2.92000  
2005  298   12.64000    -3.08000  
2005  299   14.09000    -3.04000  
2005  300   13.10000    -3.57000  
2005  301   13.51000    -1.65000  
2005  302   13.36000    -2.59000  
2005  303   13.71000    -2.85000  
2005  304   15.12000    -2.72000  
2005  305   12.99000    -1.00000  
2005  306   14.61000    -0.39000  
2005  307   12.67000    -1.07000  
2005  308   12.48000    -0.94000  
2005  309   13.52000     0.48000  
2005  310   14.98000    -1.82000  
2005  311   11.91000    -2.20000  
2005  312   12.94000    -2.01000  
2005  313   12.36000    -2.01000  
2005  314    8.30000    -1.08000  
2005  315    9.78000    -1.26000  
2005  316    4.15000    -7.40000  
2005  317    5.30000    -7.35000  
2005  318    5.19000    -6.94000  
2005  319    5.87000    -6.76000  
2005  320    3.73000    -5.63000  
2005  321    2.06000   -10.89000  
2005  322    2.26000   -11.42000  
2005  323    5.78000   -10.55000  
2005  324    5.66000   -10.53000  
2005  325    4.45000   -10.80000  
2005  326    4.29000    -7.63000  
2005  327    4.43000    -9.53000  
2005  328    4.83000    -9.44000  
2005  329    3.31000    -9.80000  
2005  330    3.08000   -10.57000  
2005  331    4.39000   -10.19000  
2005  332    7.23000    -6.47000  
2005  333    8.60000    -6.98000  
2005  334    5.81000    -3.42000  
2005  335    8.04000    -3.68000  
2005  336    3.35000   -10.47000  
2005  337   -7.42000   -19.20000  
2005  338   -7.08000   -19.76000  
2005  339   -4.07000   -19.73000  
2005  340   -0.94000   -10.34000  
2005  341    1.83000    -3.53000  
2005  342    8.21000    -1.65000  
2005  343    8.22000    -6.58000  
2005  344    3.78000    -9.29000  
2005  345    3.31000    -9.37000  
2005  346   -0.24000   -11.45000  
2005  347    0.04000   -12.83000  
2005  348    1.36000   -12.83000  
2005  349    2.02000   -10.90000  
2005  350    1.62000   -13.53000  
2005  351    1.27000   -14.55000  
2005  352    1.15000   -11.25000  
2005  353   -0.14000    -7.40000  
2005  354   -2.92000   -18.90000  
2005  355  -12.44000   -19.67000  
2005  356  -10.45000   -19.63000  
2005  357   -4.87000   -17.27000  
2005  358   -4.88000   -16.90000  
2005  359   -5.77000   -17.08000  
2005  360   -5.22000   -11.13000  
2005  361   -8.85000   -18.30000  
2005  362   -9.37000   -25.64000  
2005  363  -11.80000   -25.71000  
2005  364  -11.31000   -23.81000  
2005  365  -11.24000   -23.96000  
2006    1   -5.93000   -23.15000  
2006    2   -5.03000   -21.93000  
2006    3   -4.54000   -21.64000  
2006    4   -5.86000   -19.37000  
2006    5   -2.83000   -18.99000  
2006    6   -1.36000   -16.29000  
2006    7   -2.55000   -16.08000  
2006    8   -2.59000   -14.84000  
2006    9   -3.88000   -14.88000  
2006   10   -2.79000   -13.94000  
2006   11   -3.54000   -14.13000  
2006   12   -5.73000   -17.22000  
2006   13   -6.00000   -18.67000  
2006   14   -5.13000   -19.00000  
2006   15   -7.36000   -19.04000  
2006   16   -6.33000   -19.36000  
2006   17   -8.63000   -19.71000  
2006   18   -6.64000   -18.80000  
2006   19   -6.37000   -14.09000  
2006   20  -11.28000   -23.47000  
2006   21  -12.94000   -31.39000  
2006   22  -17.68000   -31.73000  
2006   23  -19.17000   -30.91000  
2006   24  -20.15000   -31.75000  
2006   25  -16.65000   -27.89000  
2006   26  -15.65000   -28.74000  
2006   27  -14.14000   -27.06000  
2006   28  -13.13000   -26.07000  
2006   29  -13.21000   -27.74000  
2006   30  -14.77000   -31.86000  
2006   31  -15.85000   -31.47000  
2006   32  -15.32000   -28.98000  
2006   33  -10.29000   -26.69000  
2006   34  -11.65000   -25.63000  
2006   35   -8.35000   -26.65000  
2006   36  -11.33000   -27.10000  
2006   37  -12.18000   -25.80000  
2006   38   -9.75000   -26.49000  
2006   39   -8.07000   -27.03000  
2006   40   -4.95000   -22.41000  
2006   41   -7.61000   -23.89000  
2006   42   -7.33000   -24.93000  
2006   43   -5.57000   -24.30000  
2006   44   -3.15000   -18.92000  
2006   45   -3.62000   -20.14000  
2006   46   -3.33000   -19.77000  
2006   47   -2.35000   -17.63000  
2006   48   -0.59000   -16.58000  
2006   49    2.95000   -14.21000  
2006   50    6.83000   -13.34000  
2006   51    6.89000    -6.99000  
2006   52    5.18000    -8.13000  
2006   53    5.48000    -7.56000  
2006   54    3.30000    -5.47000  
2006   55    4.44000   -11.78000  
2006   56    1.90000   -12.36000  
2006   57    5.14000   -12.69000  
2006   58    7.39000    -8.10000  
2006   59    9.87000    -6.38000  
2006   60    6.65000    -8.85000  
2006   61   10.36000    -8.89000  
2006   62   11.41000    -7.26000  
2006   63   13.47000    -5.81000  
2006   64   11.47000    -1.46000  
2006   65    7.29000    -3.56000  
2006   66   10.31000    -4.29000  
2006   67   15.98000    -3.20000  
2006   68   16.64000    -2.07000  
2006   69   16.35000     1.01000  
2006   70   13.51000    -2.88000  
2006   71    6.87000    -3.37000  
2006   72   16.24000    -2.41000  
2006   73   10.94000    -3.93000  
2006   74   16.47000    -3.64000  
2006   75   19.41000     1.18000  
2006   76   19.57000    -0.20000  
2006   77   11.22000    -0.50000  
2006   78   12.66000     0.08000  
2006   79   11.25000    -2.18000  
2006   80   12.64000    -4.57000  
2006   81   12.29000    -4.75000  
2006   82   16.99000    -2.94000  
2006   83   16.82000     0.06000  
2006   84   19.42000     1.64000  
2006   85   15.85000     3.25000  
2006   86   11.10000    -1.54000  
2006   87   10.97000    -0.92000  
2006   88    8.48000     0.28000  
2006   89   11.32000    -0.30000  
2006   90    6.55000    -3.82000  
2006   91   12.12000    -4.97000  
2006   92   15.37000    -2.77000  
2006   93   17.61000    -0.77000  
2006   94   19.35000     0.45000  
2006   95   20.33000     1.65000  
2006   96   22.44000     3.27000  
2006   97   19.79000     7.05000  
2006   98   23.02000     7.62000  
2006   99   15.30000     2.38000  
2006  100   15.61000     3.47000  
2006  101   17.77000     2.50000  
2006  102   19.09000     0.86000  
2006  103   21.89000     3.86000  
2006  104   24.42000     5.00000  
2006  105   27.07000     7.02000  
2006  106   27.67000    10.45000  
2006  107   28.49000    12.19000  
2006  108   23.36000     3.75000  
2006  109   14.38000     0.36000  
2006  110    7.63000     0.39000  
2006  111   11.66000     0.25000  
2006  112   14.73000    -0.67000  
2006  113   20.78000     1.69000  
2006  114   24.36000     4.40000  
2006  115   26.55000     8.62000  
2006  116   26.43000    10.05000  
2006  117   28.61000    12.26000  
2006  118   29.90000    12.27000  
2006  119   17.60000     7.59000  
2006  120   26.34000    10.35000  
2006  121   18.61000     4.96000  
2006  122   14.97000     2.52000  
2006  123   19.53000     4.59000  
2006  124   23.20000     8.21000  
2006  125   29.75000    13.05000  
2006  126   23.20000    11.63000  
2006  127   23.76000    13.23000  
2006  128   18.67000     5.43000  
2006  129   21.23000     6.24000  
2006  130   25.01000     6.29000  
2006  131   22.33000     6.48000  
2006  132   26.10000    10.67000  
2006  133   32.10000    15.16000  
2006  134   34.21000    13.25000  
2006  135   33.06000    15.78000  
2006  136   29.26000    15.14000  
2006  137   27.32000    13.10000  
2006  138   26.95000    10.52000  
2006  139   29.56000    12.74000  
2006  140   26.93000    14.75000  
2006  141   28.60000    13.46000  
2006  142   30.80000    13.24000  
2006  143   32.85000    16.29000  
2006  144   34.32000    18.01000  
2006  145   36.07000    16.67000  
2006  146   25.66000     9.71000  
2006  147   31.44000    14.94000  
2006  148   26.81000     9.19000  
2006  149   25.09000     8.36000  
2006  150   30.44000    14.37000  
2006  151   32.43000    17.73000  
2006  152   31.31000    14.94000  
2006  153   30.09000    15.11000  
2006  154   33.68000    18.47000  
2006  155   32.66000    19.81000  
2006  156   25.47000    13.52000  
2006  157   30.47000    16.88000  
2006  158   34.69000    20.37000  
2006  159   36.43000    18.29000  
2006  160   37.75000    19.57000  
2006  161   37.11000    20.93000  
2006  162   38.88000    21.26000  
2006  163   28.36000    14.91000  
2006  164   32.13000    15.53000  
2006  165   29.37000    14.25000  
2006  166   33.74000    16.74000  
2006  167   31.35000    14.42000  
2006  168   31.59000    14.74000  
2006  169   33.68000    19.64000  
2006  170   25.88000    13.88000  
2006  171   31.54000    16.74000  
2006  172   23.20000    13.33000  
2006  173   28.88000    13.23000  
2006  174   32.22000    17.82000  
2006  175   34.97000    19.06000  
2006  176   35.43000    20.91000  
2006  177   36.21000    19.39000  
2006  178   30.65000    19.75000  
2006  179   27.75000    15.48000  
2006  180   33.26000    17.24000  
2006  181   35.87000    19.06000  
2006  182   36.97000    21.77000  
2006  183   37.49000    25.60000  
2006  184   28.59000    16.75000  
2006  185   35.48000    19.28000  
2006  186   37.31000    20.47000  
2006  187   36.45000    20.02000  
2006  188   36.15000    22.90000  
2006  189   33.84000    23.62000  
2006  190   31.58000    18.84000  
2006  191   31.20000    16.47000  
2006  192   32.86000    18.55000  
2006  193   33.94000    18.59000  
2006  194   24.58000    14.37000  
2006  195   33.48000    17.80000  
2006  196   36.93000    22.01000  
2006  197   33.03000    21.77000  
2006  198   31.75000    19.77000  
2006  199   32.30000    20.03000  
2006  200   34.23000    21.37000  
2006  201   36.25000    22.07000  
2006  202   35.98000    21.91000  
2006  203   37.12000    24.24000  
2006  204   35.57000    24.38000  
2006  205   34.57000    22.66000  
2006  206   38.32000    24.21000  
2006  207   35.73000    24.34000  
2006  208   31.49000    17.93000  
2006  209   31.09000    19.80000  
2006  210   28.58000    20.86000  
2006  211   27.01000    18.37000  
2006  212   35.44000    20.20000  
2006  213   36.45000    20.64000  
2006  214   38.21000    23.35000  
2006  215   38.90000    24.89000  
2006  216   40.26000    22.92000  
2006  217   39.47000    24.13000  
2006  218   34.39000    21.56000  
2006  219   26.14000    15.64000  
2006  220   21.10000    12.63000  
2006  221   27.83000    14.37000  
2006  222   30.88000    16.55000  
2006  223   33.42000    17.81000  
2006  224   33.49000    16.79000  
2006  225   34.91000    18.14000  
2006  226   33.88000    20.23000  
2006  227   30.72000    16.19000  
2006  228   32.62000    17.33000  
2006  229   34.65000    17.87000  
2006  230   36.26000    20.89000  
2006  231   31.20000    15.27000  
2006  232   24.72000    14.05000  
2006  233   29.30000    15.19000  
2006  234   31.45000    17.25000  
2006  235   32.16000    17.30000  
2006  236   32.56000    17.86000  
2006  237   27.83000    12.08000  
2006  238   28.55000    12.45000  
2006  239   31.63000    14.65000  
2006  240   24.16000    11.55000  
2006  241   21.63000     7.49000  
2006  242   26.49000    10.24000  
2006  243   28.70000    12.26000  
2006  244   28.20000    13.49000  
2006  245   29.15000    14.78000  
2006  246   28.85000    12.76000  
2006  247   28.36000    14.47000  
2006  248   29.01000    16.37000  
2006  249   27.26000    14.35000  
2006  250   26.68000     9.44000  
2006  251   22.44000    10.29000  
2006  252   22.73000     9.01000  
2006  253   28.45000     9.72000  
2006  254   30.39000    11.27000  
2006  255   31.89000    13.34000  
2006  256   31.74000    14.46000  
2006  257   29.32000    13.05000  
2006  258   30.50000    12.02000  
2006  259   30.77000    12.53000  
2006  260   29.34000    13.73000  
2006  261   30.80000    15.12000  
2006  262   29.54000    15.31000  
2006  263   27.97000    15.95000  
2006  264   24.27000    15.65000  
2006  265   21.70000    10.50000  
2006  266   20.38000    11.11000  
2006  267   20.59000    12.97000  
2006  268   18.78000    11.48000  
2006  269   16.59000     8.78000  
2006  270   20.88000     8.81000  
2006  271   27.22000     9.99000  
2006  272   26.84000    10.48000  
2006  273   29.87000    11.14000  
2006  274   30.84000    11.82000  
2006  275   27.97000    12.14000  
2006  276   13.21000     6.72000  
2006  277   16.81000     7.69000  
2006  278   18.90000     6.24000  
2006  279   19.94000     6.79000  
2006  280   16.94000     1.93000  
2006  281   19.85000     2.81000  
2006  282   15.16000     1.60000  
2006  283   18.08000     2.07000  
2006  284   19.84000     3.00000  
2006  285   21.59000     5.52000  
2006  286   19.54000     5.68000  
2006  287   21.81000     6.11000  
2006  288   19.95000     3.85000  
2006  289   20.79000     3.58000  
2006  290   17.37000     3.98000  
2006  291   21.05000     3.59000  
2006  292   23.01000     3.61000  
2006  293   22.16000     3.50000  
2006  294    8.37000     0.74000  
2006  295    8.67000    -5.96000  
2006  296    9.94000    -6.06000  
2006  297   14.75000    -2.92000  
2006  298   12.64000    -3.08000  
2006  299   14.09000    -3.04000  
2006  300   13.10000    -3.57000  
2006  301   13.51000    -1.65000  
2006  302   13.36000    -2.59000  
2006  303   13.71000    -2.85000  
2006  304   15.12000    -2.72000  
2006  305   12.99000    -1.00000  
2006  306   14.61000    -0.39000  
2006  307   12.67000    -1.07000  
2006  308   12.48000    -0.94000  
2006  309   13.52000     0.48000  
2006  310   14.98000    -1.82000  
2006  311   11.91000    -2.20000  
2006  312   12.94000    -2.01000  
2006  313   12.36000    -2.01000  
2006  314    8.30000    -1.08000  
2006  315    9.78000    -1.26000  
2006  316    4.15000    -7.40000  
2006  317    5.30000    -7.35000  
2006  318    5.19000    -6.94000  
2006  319    5.87000    -6.76000  
2006  320    3.73000    -5.63000  
2006  321    2.06000   -10.89000  
2006  322    2.26000   -11.42000  
2006  323    5.78000   -10.55000  
2006  324    5.66000   -10.53000  
2006  325    4.45000   -10.80000  
2006  326    4.29000    -7.63000  
2006  327    4.43000    -9.53000  
2006  328    4.83000    -9.44000  
2006  329    3.31000    -9.80000  
2006  330    3.08000   -10.57000  
2006  331    4.39000   -10.19000  
2006  332    7.23000    -6.47000  
2006  333    8.60000    -6.98000  
2006  334    5.81000    -3.42000  
2006  335    8.04000    -3.68000  
2006  336    3.35000   -10.47000  
2006  337   -7.42000   -19.20000  
2006  338   -7.08000   -19.76000  
2006  339   -4.07000   -19.73000  
2006  340   -0.94000   -10.34000  
2006  341    1.83000    -3.53000  
2006  342    8.21000    -1.65000  
2006  343    8.22000    -6.58000  
2006  344    3.78000    -9.29000  
2006  345    3.31000    -9.37000  
2006  346   -0.24000   -11.45000  
2006  347    0.04000   -12.83000  
2006  348    1.36000   -12.83000  
2006  349    2.02000   -10.90000  
2006  350    1.62000   -13.53000  
2006  351    1.27000   -14.55000  
2006  352    1.15000   -11.25000  
2006  353   -0.14000    -7.40000  
2006  354   -2.92000   -18.90000  
2006  355  -12.44000   -19.67000  
2006  356  -10.45000   -19.63000  
2006  357   -4.87000   -17.27000  
2006  358   -4.88000   -16.90000  
2006  359   -5.77000   -17.08000  
2006  360   -5.22000   -11.13000  
2006  361   -8.85000   -18.30000  
2006  362   -9.37000   -25.64000  
2006  363  -11.80000   -25.71000  
2006  364  -11.31000   -23.81000  
2006  365  -11.24000   -23.96000  
2007    1   -5.93000   -23.15000  
2007    2   -5.03000   -21.93000  
2007    3   -4.54000   -21.64000  
2007    4   -5.86000   -19.37000  
2007    5   -2.83000   -18.99000  
2007    6   -1.36000   -16.29000  
2007    7   -2.55000   -16.08000  
2007    8   -2.59000   -14.84000  
2007    9   -3.88000   -14.88000  
2007   10   -2.79000   -13.94000  
2007   11   -3.54000   -14.13000  
2007   12   -5.73000   -17.22000  
2007   13   -6.00000   -18.67000  
2007   14   -5.13000   -19.00000  
2007   15   -7.36000   -19.04000  
2007   16   -6.33000   -19.36000  
2007   17   -8.63000   -19.71000  
2007   18   -6.64000   -18.80000  
2007   19   -6.37000   -14.09000  
2007   20  -11.28000   -23.47000  
2007   21  -12.94000   -31.39000  
2007   22  -17.68000   -31.73000  
2007   23  -19.17000   -30.91000  
2007   24  -20.15000   -31.75000  
2007   25  -16.65000   -27.89000  
2007   26  -15.65000   -28.74000  
2007   27  -14.14000   -27.06000  
2007   28  -13.13000   -26.07000  
2007   29  -13.21000   -27.74000  
2007   30  -14.77000   -31.86000  
2007   31  -15.85000   -31.47000  
2007   32  -15.32000   -28.98000  
2007   33  -10.29000   -26.69000  
2007   34  -11.65000   -25.63000  
2007   35   -8.35000   -26.65000  
2007   36  -11.33000   -27.10000  
2007   37  -12.18000   -25.80000  
2007   38   -9.75000   -26.49000  
2007   39   -8.07000   -27.03000  
2007   40   -4.95000   -22.41000  
2007   41   -7.61000   -23.89000  
2007   42   -7.33000   -24.93000  
2007   43   -5.57000   -24.30000  
2007   44   -3.15000   -18.92000  
2007   45   -3.62000   -20.14000  
2007   46   -3.33000   -19.77000  
2007   47   -2.35000   -17.63000  
2007   48   -0.59000   -16.58000  
2007   49    2.95000   -14.21000  
2007   50    6.83000   -13.34000  
2007   51    6.89000    -6.99000  
2007   52    5.18000    -8.13000  
2007   53    5.48000    -7.56000  
2007   54    3.30000    -5.47000  
2007   55    4.44000   -11.78000  
2007   56    1.90000   -12.36000  
2007   57    5.14000   -12.69000  
2007   58    7.39000    -8.10000  
2007   59    9.87000    -6.38000  
2007   60    6.65000    -8.85000  
2007   61   10.36000    -8.89000  
2007   62   11.41000    -7.26000  
2007   63   13.47000    -5.81000  
2007   64   11.47000    -1.46000  
2007   65    7.29000    -3.56000  
2007   66   10.31000    -4.29000  
2007   67   15.98000    -3.20000  
2007   68   16.64000    -2.07000  
2007   69   16.35000     1.01000  
2007   70   13.51000    -2.88000  
2007   71    6.87000    -3.37000  
2007   72   16.24000    -2.41000  
2007   73   10.94000    -3.93000  
2007   74   16.47000    -3.64000  
2007   75   19.41000     1.18000  
2007   76   19.57000    -0.20000  
2007   77   11.22000    -0.50000  
2007   78   12.66000     0.08000  
2007   79   11.25000    -2.18000  
2007   80   12.64000    -4.57000  
2007   81   12.29000    -4.75000  
2007   82   16.99000    -2.94000  
2007   83   16.82000     0.06000  
2007   84   19.42000     1.64000  
2007   85   15.85000     3.25000  
2007   86   11.10000    -1.54000  
2007   87   10.97000    -0.92000  
2007   88    8.48000     0.28000  
2007   89   11.32000    -0.30000  
2007   90    6.55000    -3.82000  
2007   91   12.12000    -4.97000  
2007   92   15.37000    -2.77000  
2007   93   17.61000    -0.77000  
2007   94   19.35000     0.45000  
2007   95   20.33000     1.65000  
2007   96   22.44000     3.27000  
2007   97   19.79000     7.05000  
2007   98   23.02000     7.62000  