167152tmp.tem: Temperature data - file written by SWAT+ editor 2025-11-04 13:23:50.643401
nbyr     tstep       lat       lon      elev
  14         0    41.531    97.781  1672.000
2005    1   -7.51000   -24.20000  
2005    2   -5.83000   -21.93000  
2005    3   -5.81000   -21.21000  
2005    4   -4.90000   -20.23000  
2005    5   -3.53000   -20.54000  
2005    6   -2.59000   -16.31000  
2005    7   -4.05000   -16.79000  
2005    8   -3.42000   -17.39000  
2005    9   -5.36000   -15.64000  
2005   10   -6.62000   -17.88000  
2005   11   -6.96000   -17.47000  
2005   12   -7.30000   -18.85000  
2005   13   -5.95000   -20.13000  
2005   14   -6.31000   -21.06000  
2005   15   -9.07000   -20.92000  
2005   16   -5.39000   -19.82000  
2005   17   -8.61000   -20.51000  
2005   18  -10.58000   -19.06000  
2005   19  -12.77000   -23.51000  
2005   20  -15.92000   -29.65000  
2005   21  -14.33000   -33.45000  
2005   22  -17.69000   -33.24000  
2005   23  -20.98000   -32.42000  
2005   24  -22.37000   -32.12000  
2005   25  -19.82000   -29.79000  
2005   26  -17.75000   -30.22000  
2005   27  -14.98000   -29.42000  
2005   28  -14.78000   -28.36000  
2005   29  -14.60000   -29.00000  
2005   30  -14.27000   -30.42000  
2005   31  -12.85000   -30.75000  
2005   32  -11.74000   -30.43000  
2005   33   -8.93000   -24.46000  
2005   34  -11.21000   -25.27000  
2005   35   -8.75000   -27.74000  
2005   36   -8.08000   -27.15000  
2005   37  -12.52000   -30.45000  
2005   38  -10.28000   -30.05000  
2005   39   -7.88000   -29.28000  
2005   40   -4.81000   -26.07000  
2005   41   -8.66000   -26.53000  
2005   42   -9.02000   -26.65000  
2005   43   -7.46000   -22.45000  
2005   44   -4.80000   -21.23000  
2005   45   -5.21000   -22.97000  
2005   46   -6.72000   -18.39000  
2005   47   -4.69000   -19.40000  
2005   48   -1.35000   -17.93000  
2005   49    2.55000   -18.43000  
2005   50    4.73000   -13.22000  
2005   51    3.35000   -11.41000  
2005   52    5.71000   -11.29000  
2005   53   -0.54000   -11.38000  
2005   54   -1.24000    -9.11000  
2005   55   -0.93000   -17.41000  
2005   56   -1.10000   -18.18000  
2005   57    1.82000   -17.22000  
2005   58    3.91000    -9.70000  
2005   59    8.02000    -7.76000  
2005   60    6.60000   -11.87000  
2005   61    9.32000   -11.84000  
2005   62    8.78000    -9.52000  
2005   63    9.70000    -8.00000  
2005   64    7.78000    -5.35000  
2005   65    6.14000    -6.82000  
2005   66    9.39000    -8.25000  
2005   67   12.94000    -7.95000  
2005   68   13.50000    -2.45000  
2005   69   12.94000    -2.81000  
2005   70    5.78000    -9.43000  
2005   71    2.60000    -9.35000  
2005   72   14.97000    -5.40000  
2005   73    7.36000    -6.17000  
2005   74   14.43000    -6.18000  
2005   75   17.86000    -0.38000  
2005   76   16.49000    -1.37000  
2005   77    7.98000    -3.37000  
2005   78    9.35000    -3.01000  
2005   79    6.79000    -5.94000  
2005   80    9.42000    -8.22000  
2005   81   10.86000    -7.61000  
2005   82   14.60000    -5.81000  
2005   83   15.72000    -3.97000  
2005   84   17.47000    -2.21000  
2005   85   10.13000    -5.39000  
2005   86    2.52000    -5.87000  
2005   87    7.21000    -4.23000  
2005   88    4.27000    -3.77000  
2005   89    1.38000    -6.88000  
2005   90    3.42000    -7.56000  
2005   91    8.23000    -8.82000  
2005   92   12.24000    -7.80000  
2005   93   13.08000    -5.36000  
2005   94   15.13000    -4.60000  
2005   95   17.56000    -1.51000  
2005   96   19.42000    -0.27000  
2005   97   16.38000     0.69000  
2005   98   17.93000     0.40000  
2005   99   12.04000     0.33000  
2005  100   10.12000    -0.15000  
2005  101   12.26000    -3.12000  
2005  102   14.59000    -1.25000  
2005  103   16.71000    -0.21000  
2005  104   19.75000     1.23000  
2005  105   23.09000     3.61000  
2005  106   21.69000     4.12000  
2005  107   24.22000     6.57000  
2005  108   18.05000    -4.37000  
2005  109    5.60000    -6.39000  
2005  110    3.14000    -5.38000  
2005  111    6.83000    -6.35000  
2005  112   11.00000    -5.35000  
2005  113   17.48000    -4.30000  
2005  114   20.86000    -0.36000  
2005  115   21.85000     4.82000  
2005  116   21.03000     5.59000  
2005  117   24.78000     9.34000  
2005  118   24.79000     4.70000  
2005  119   14.97000     2.60000  
2005  120   23.48000     3.86000  
2005  121   12.45000     2.20000  
2005  122    5.92000    -3.49000  
2005  123   17.67000    -0.30000  
2005  124   23.11000     5.05000  
2005  125   25.34000     8.13000  
2005  126   18.53000     7.24000  
2005  127   19.43000     6.54000  
2005  128   13.48000    -0.05000  
2005  129   18.75000     1.31000  
2005  130   23.07000     3.54000  
2005  131   22.35000     4.07000  
2005  132   23.60000     6.75000  
2005  133   27.13000    10.87000  
2005  134   29.05000    11.66000  
2005  135   29.57000    13.89000  
2005  136   26.61000    11.31000  
2005  137   24.40000     8.02000  
2005  138   23.02000     7.88000  
2005  139   24.79000     8.22000  
2005  140   24.63000    12.00000  
2005  141   24.74000    10.80000  
2005  142   25.43000     9.86000  
2005  143   27.79000    11.51000  
2005  144   30.06000    13.89000  
2005  145   27.89000     9.96000  
2005  146   22.09000     6.76000  
2005  147   26.57000    11.31000  
2005  148   22.86000     7.95000  
2005  149   24.12000     6.98000  
2005  150   27.68000    12.90000  
2005  151   28.91000    14.21000  
2005  152   28.97000    13.27000  
2005  153   29.93000    13.05000  
2005  154   31.71000    15.77000  
2005  155   27.18000    16.06000  
2005  156   23.39000     9.80000  
2005  157   26.26000    13.77000  
2005  158   29.85000    14.37000  
2005  159   32.13000    14.94000  
2005  160   33.17000    19.66000  
2005  161   31.64000    16.32000  
2005  162   33.61000    14.17000  
2005  163   24.10000     9.26000  
2005  164   22.83000     8.51000  
2005  165   25.69000    10.01000  
2005  166   29.41000    10.57000  
2005  167   27.17000    14.02000  
2005  168   28.50000    14.18000  
2005  169   24.13000    12.94000  
2005  170   22.71000     8.17000  
2005  171   26.82000    13.68000  
2005  172   22.05000    10.59000  
2005  173   25.63000     9.64000  
2005  174   28.42000    13.93000  
2005  175   30.13000    17.55000  
2005  176   30.88000    17.44000  
2005  177   30.97000    16.56000  
2005  178   26.92000    15.74000  
2005  179   25.98000    14.37000  
2005  180   29.10000    14.08000  
2005  181   31.99000    17.06000  
2005  182   33.03000    19.70000  
2005  183   29.45000    18.59000  
2005  184   26.46000    12.47000  
2005  185   31.97000    14.13000  
2005  186   31.89000    16.94000  
2005  187   30.40000    15.37000  
2005  188   31.26000    19.67000  
2005  189   28.34000    16.40000  
2005  190   23.31000    13.44000  
2005  191   26.69000    12.48000  
2005  192   28.75000    13.93000  
2005  193   27.07000    14.02000  
2005  194   28.15000    14.63000  
2005  195   31.27000    14.70000  
2005  196   32.40000    18.31000  
2005  197   22.36000    12.62000  
2005  198   26.13000    13.58000  
2005  199   26.28000    13.47000  
2005  200   30.44000    16.41000  
2005  201   31.33000    19.13000  
2005  202   28.94000    16.12000  
2005  203   31.97000    18.89000  
2005  204   29.38000    18.50000  
2005  205   31.16000    19.42000  
2005  206   25.81000    16.49000  
2005  207   29.80000    16.29000  
2005  208   27.20000    14.31000  
2005  209   28.56000    16.78000  
2005  210   21.27000    15.35000  
2005  211   25.84000    15.87000  
2005  212   29.28000    15.26000  
2005  213   31.79000    15.54000  
2005  214   33.83000    18.40000  
2005  215   35.36000    19.63000  
2005  216   35.96000    18.60000  
2005  217   32.57000    16.09000  
2005  218   25.88000    15.44000  
2005  219   24.12000    11.32000  
2005  220   27.19000    10.51000  
2005  221   26.84000    12.62000  
2005  222   28.06000    12.30000  
2005  223   29.47000    12.01000  
2005  224   28.95000    13.08000  
2005  225   29.72000    13.60000  
2005  226   29.92000    16.48000  
2005  227   25.56000    11.16000  
2005  228   29.20000    13.99000  
2005  229   29.73000    16.26000  
2005  230   30.54000    18.03000  
2005  231   24.18000    10.89000  
2005  232   18.33000     8.44000  
2005  233   25.41000     9.32000  
2005  234   27.18000    12.40000  
2005  235   28.29000    11.40000  
2005  236   27.56000    11.28000  
2005  237   25.24000     8.43000  
2005  238   27.21000    10.03000  
2005  239   28.45000    10.64000  
2005  240   12.67000     7.71000  
2005  241   20.08000     3.51000  
2005  242   24.83000     6.12000  
2005  243   25.79000     9.17000  
2005  244   23.09000    10.41000  
2005  245   25.40000     9.45000  
2005  246   24.78000     8.18000  
2005  247   24.53000     9.92000  
2005  248   24.82000    10.80000  
2005  249   24.33000     9.70000  
2005  250   18.55000     5.69000  
2005  251   19.86000     4.34000  
2005  252   20.22000     4.08000  
2005  253   24.91000     5.64000  
2005  254   26.92000     7.01000  
2005  255   26.09000     8.13000  
2005  256   26.15000     8.15000  
2005  257   26.11000     7.79000  
2005  258   25.92000     8.28000  
2005  259   27.55000     7.37000  
2005  260   27.10000     8.64000  
2005  261   27.94000    10.17000  
2005  262   26.67000    11.94000  
2005  263   22.69000     8.10000  
2005  264   17.51000     8.24000  
2005  265   19.29000     6.37000  
2005  266   15.41000     6.10000  
2005  267   12.74000     5.11000  
2005  268   13.55000     5.86000  
2005  269   12.63000     3.59000  
2005  270   21.41000     4.42000  
2005  271   25.20000     6.04000  
2005  272   25.41000     5.87000  
2005  273   26.41000     5.47000  
2005  274   26.57000     9.28000  
2005  275   22.83000     9.13000  
2005  276   14.21000     6.84000  
2005  277   18.10000     3.99000  
2005  278   18.37000     3.74000  
2005  279   17.27000     6.15000  
2005  280   15.56000     1.34000  
2005  281   17.13000    -0.40000  
2005  282   13.96000    -1.97000  
2005  283   15.54000    -1.73000  
2005  284   18.17000     2.12000  
2005  285   19.03000     3.22000  
2005  286   17.19000     2.45000  
2005  287   18.94000     2.72000  
2005  288   16.66000     1.91000  
2005  289   17.21000     1.59000  
2005  290   15.97000     2.21000  
2005  291   17.31000     2.06000  
2005  292   19.57000    -0.33000  
2005  293   18.98000    -1.28000  
2005  294    3.53000    -4.17000  
2005  295    5.98000    -9.04000  
2005  296    8.57000    -9.03000  
2005  297   12.37000    -6.49000  
2005  298   10.73000    -4.79000  
2005  299   11.30000    -7.19000  
2005  300    9.75000    -8.00000  
2005  301   10.12000    -5.53000  
2005  302   10.98000    -6.80000  
2005  303   10.33000    -6.81000  
2005  304   11.74000    -5.83000  
2005  305   12.60000    -5.74000  
2005  306   13.17000    -5.53000  
2005  307   10.64000    -6.01000  
2005  308    9.26000    -4.53000  
2005  309   10.17000    -2.82000  
2005  310   11.70000    -5.56000  
2005  311    9.55000    -3.67000  
2005  312   11.63000    -3.61000  
2005  313    9.20000    -4.29000  
2005  314    5.57000    -3.63000  
2005  315    3.16000    -5.91000  
2005  316    0.44000   -11.28000  
2005  317    2.82000   -10.85000  
2005  318    0.79000    -9.75000  
2005  319    3.31000    -8.83000  
2005  320   -0.86000   -12.31000  
2005  321   -0.74000   -14.85000  
2005  322    0.91000   -14.97000  
2005  323    2.43000   -14.82000  
2005  324    2.97000   -12.98000  
2005  325    2.35000   -12.51000  
2005  326    2.16000    -9.90000  
2005  327    1.93000   -15.00000  
2005  328    4.46000   -15.01000  
2005  329    0.57000   -12.52000  
2005  330    3.11000   -13.56000  
2005  331    2.97000   -14.08000  
2005  332    5.72000    -7.95000  
2005  333    5.77000    -7.92000  
2005  334    2.98000    -7.21000  
2005  335    5.60000    -7.79000  
2005  336   -3.12000   -16.10000  
2005  337  -13.16000   -25.24000  
2005  338  -10.69000   -25.28000  
2005  339   -5.30000   -23.50000  
2005  340   -2.54000   -11.13000  
2005  341   -1.25000    -9.87000  
2005  342    5.70000    -4.83000  
2005  343    4.45000   -13.65000  
2005  344    3.54000   -14.76000  
2005  345    2.48000   -12.21000  
2005  346   -2.34000   -12.39000  
2005  347   -2.25000   -14.29000  
2005  348    1.36000   -14.54000  
2005  349    1.72000   -11.42000  
2005  350   -0.74000   -16.88000  
2005  351   -0.10000   -17.31000  
2005  352    0.79000   -12.56000  
2005  353   -3.55000   -12.22000  
2005  354   -4.79000   -21.44000  
2005  355  -16.31000   -21.57000  
2005  356   -9.29000   -21.08000  
2005  357   -2.95000   -20.18000  
2005  358   -5.92000   -20.22000  
2005  359   -9.36000   -19.23000  
2005  360   -6.26000   -14.00000  
2005  361  -14.29000   -23.24000  
2005  362  -13.18000   -24.69000  
2005  363  -11.48000   -24.67000  
2005  364  -12.14000   -25.73000  
2005  365   -9.82000   -25.88000  
2006    1   -7.51000   -24.20000  
2006    2   -5.83000   -21.93000  
2006    3   -5.81000   -21.21000  
2006    4   -4.90000   -20.23000  
2006    5   -3.53000   -20.54000  
2006    6   -2.59000   -16.31000  
2006    7   -4.05000   -16.79000  
2006    8   -3.42000   -17.39000  
2006    9   -5.36000   -15.64000  
2006   10   -6.62000   -17.88000  
2006   11   -6.96000   -17.47000  
2006   12   -7.30000   -18.85000  
2006   13   -5.95000   -20.13000  
2006   14   -6.31000   -21.06000  
2006   15   -9.07000   -20.92000  
2006   16   -5.39000   -19.82000  
2006   17   -8.61000   -20.51000  
2006   18  -10.58000   -19.06000  
2006   19  -12.77000   -23.51000  
2006   20  -15.92000   -29.65000  
2006   21  -14.33000   -33.45000  
2006   22  -17.69000   -33.24000  
2006   23  -20.98000   -32.42000  
2006   24  -22.37000   -32.12000  
2006   25  -19.82000   -29.79000  
2006   26  -17.75000   -30.22000  
2006   27  -14.98000   -29.42000  
2006   28  -14.78000   -28.36000  
2006   29  -14.60000   -29.00000  
2006   30  -14.27000   -30.42000  
2006   31  -12.85000   -30.75000  
2006   32  -11.74000   -30.43000  
2006   33   -8.93000   -24.46000  
2006   34  -11.21000   -25.27000  
2006   35   -8.75000   -27.74000  
2006   36   -8.08000   -27.15000  
2006   37  -12.52000   -30.45000  
2006   38  -10.28000   -30.05000  
2006   39   -7.88000   -29.28000  
2006   40   -4.81000   -26.07000  
2006   41   -8.66000   -26.53000  
2006   42   -9.02000   -26.65000  
2006   43   -7.46000   -22.45000  
2006   44   -4.80000   -21.23000  
2006   45   -5.21000   -22.97000  
2006   46   -6.72000   -18.39000  
2006   47   -4.69000   -19.40000  
2006   48   -1.35000   -17.93000  
2006   49    2.55000   -18.43000  
2006   50    4.73000   -13.22000  
2006   51    3.35000   -11.41000  
2006   52    5.71000   -11.29000  
2006   53   -0.54000   -11.38000  
2006   54   -1.24000    -9.11000  
2006   55   -0.93000   -17.41000  
2006   56   -1.10000   -18.18000  
2006   57    1.82000   -17.22000  
2006   58    3.91000    -9.70000  
2006   59    8.02000    -7.76000  
2006   60    6.60000   -11.87000  
2006   61    9.32000   -11.84000  
2006   62    8.78000    -9.52000  
2006   63    9.70000    -8.00000  
2006   64    7.78000    -5.35000  
2006   65    6.14000    -6.82000  
2006   66    9.39000    -8.25000  
2006   67   12.94000    -7.95000  
2006   68   13.50000    -2.45000  
2006   69   12.94000    -2.81000  
2006   70    5.78000    -9.43000  
2006   71    2.60000    -9.35000  
2006   72   14.97000    -5.40000  
2006   73    7.36000    -6.17000  
2006   74   14.43000    -6.18000  
2006   75   17.86000    -0.38000  
2006   76   16.49000    -1.37000  
2006   77    7.98000    -3.37000  
2006   78    9.35000    -3.01000  
2006   79    6.79000    -5.94000  
2006   80    9.42000    -8.22000  
2006   81   10.86000    -7.61000  
2006   82   14.60000    -5.81000  
2006   83   15.72000    -3.97000  
2006   84   17.47000    -2.21000  
2006   85   10.13000    -5.39000  
2006   86    2.52000    -5.87000  
2006   87    7.21000    -4.23000  
2006   88    4.27000    -3.77000  
2006   89    1.38000    -6.88000  
2006   90    3.42000    -7.56000  
2006   91    8.23000    -8.82000  
2006   92   12.24000    -7.80000  
2006   93   13.08000    -5.36000  
2006   94   15.13000    -4.60000  
2006   95   17.56000    -1.51000  
2006   96   19.42000    -0.27000  
2006   97   16.38000     0.69000  
2006   98   17.93000     0.40000  
2006   99   12.04000     0.33000  
2006  100   10.12000    -0.15000  
2006  101   12.26000    -3.12000  
2006  102   14.59000    -1.25000  
2006  103   16.71000    -0.21000  
2006  104   19.75000     1.23000  
2006  105   23.09000     3.61000  
2006  106   21.69000     4.12000  
2006  107   24.22000     6.57000  
2006  108   18.05000    -4.37000  
2006  109    5.60000    -6.39000  
2006  110    3.14000    -5.38000  
2006  111    6.83000    -6.35000  
2006  112   11.00000    -5.35000  
2006  113   17.48000    -4.30000  
2006  114   20.86000    -0.36000  
2006  115   21.85000     4.82000  
2006  116   21.03000     5.59000  
2006  117   24.78000     9.34000  
2006  118   24.79000     4.70000  
2006  119   14.97000     2.60000  
2006  120   23.48000     3.86000  
2006  121   12.45000     2.20000  
2006  122    5.92000    -3.49000  
2006  123   17.67000    -0.30000  
2006  124   23.11000     5.05000  
2006  125   25.34000     8.13000  
2006  126   18.53000     7.24000  
2006  127   19.43000     6.54000  
2006  128   13.48000    -0.05000  
2006  129   18.75000     1.31000  
2006  130   23.07000     3.54000  
2006  131   22.35000     4.07000  
2006  132   23.60000     6.75000  
2006  133   27.13000    10.87000  
2006  134   29.05000    11.66000  
2006  135   29.57000    13.89000  
2006  136   26.61000    11.31000  
2006  137   24.40000     8.02000  
2006  138   23.02000     7.88000  
2006  139   24.79000     8.22000  
2006  140   24.63000    12.00000  
2006  141   24.74000    10.80000  
2006  142   25.43000     9.86000  
2006  143   27.79000    11.51000  
2006  144   30.06000    13.89000  
2006  145   27.89000     9.96000  
2006  146   22.09000     6.76000  
2006  147   26.57000    11.31000  
2006  148   22.86000     7.95000  
2006  149   24.12000     6.98000  
2006  150   27.68000    12.90000  
2006  151   28.91000    14.21000  
2006  152   28.97000    13.27000  
2006  153   29.93000    13.05000  
2006  154   31.71000    15.77000  
2006  155   27.18000    16.06000  
2006  156   23.39000     9.80000  
2006  157   26.26000    13.77000  
2006  158   29.85000    14.37000  
2006  159   32.13000    14.94000  
2006  160   33.17000    19.66000  
2006  161   31.64000    16.32000  
2006  162   33.61000    14.17000  
2006  163   24.10000     9.26000  
2006  164   22.83000     8.51000  
2006  165   25.69000    10.01000  
2006  166   29.41000    10.57000  
2006  167   27.17000    14.02000  
2006  168   28.50000    14.18000  
2006  169   24.13000    12.94000  
2006  170   22.71000     8.17000  
2006  171   26.82000    13.68000  
2006  172   22.05000    10.59000  
2006  173   25.63000     9.64000  
2006  174   28.42000    13.93000  
2006  175   30.13000    17.55000  
2006  176   30.88000    17.44000  
2006  177   30.97000    16.56000  
2006  178   26.92000    15.74000  
2006  179   25.98000    14.37000  
2006  180   29.10000    14.08000  
2006  181   31.99000    17.06000  
2006  182   33.03000    19.70000  
2006  183   29.45000    18.59000  
2006  184   26.46000    12.47000  
2006  185   31.97000    14.13000  
2006  186   31.89000    16.94000  
2006  187   30.40000    15.37000  
2006  188   31.26000    19.67000  
2006  189   28.34000    16.40000  
2006  190   23.31000    13.44000  
2006  191   26.69000    12.48000  
2006  192   28.75000    13.93000  
2006  193   27.07000    14.02000  
2006  194   28.15000    14.63000  
2006  195   31.27000    14.70000  
2006  196   32.40000    18.31000  
2006  197   22.36000    12.62000  
2006  198   26.13000    13.58000  
2006  199   26.28000    13.47000  
2006  200   30.44000    16.41000  
2006  201   31.33000    19.13000  
2006  202   28.94000    16.12000  
2006  203   31.97000    18.89000  
2006  204   29.38000    18.50000  
2006  205   31.16000    19.42000  
2006  206   25.81000    16.49000  
2006  207   29.80000    16.29000  
2006  208   27.20000    14.31000  
2006  209   28.56000    16.78000  
2006  210   21.27000    15.35000  
2006  211   25.84000    15.87000  
2006  212   29.28000    15.26000  
2006  213   31.79000    15.54000  
2006  214   33.83000    18.40000  
2006  215   35.36000    19.63000  
2006  216   35.96000    18.60000  
2006  217   32.57000    16.09000  
2006  218   25.88000    15.44000  
2006  219   24.12000    11.32000  
2006  220   27.19000    10.51000  
2006  221   26.84000    12.62000  
2006  222   28.06000    12.30000  
2006  223   29.47000    12.01000  
2006  224   28.95000    13.08000  
2006  225   29.72000    13.60000  
2006  226   29.92000    16.48000  
2006  227   25.56000    11.16000  
2006  228   29.20000    13.99000  
2006  229   29.73000    16.26000  
2006  230   30.54000    18.03000  
2006  231   24.18000    10.89000  
2006  232   18.33000     8.44000  
2006  233   25.41000     9.32000  
2006  234   27.18000    12.40000  
2006  235   28.29000    11.40000  
2006  236   27.56000    11.28000  
2006  237   25.24000     8.43000  
2006  238   27.21000    10.03000  
2006  239   28.45000    10.64000  
2006  240   12.67000     7.71000  
2006  241   20.08000     3.51000  
2006  242   24.83000     6.12000  
2006  243   25.79000     9.17000  
2006  244   23.09000    10.41000  
2006  245   25.40000     9.45000  
2006  246   24.78000     8.18000  
2006  247   24.53000     9.92000  
2006  248   24.82000    10.80000  
2006  249   24.33000     9.70000  
2006  250   18.55000     5.69000  
2006  251   19.86000     4.34000  
2006  252   20.22000     4.08000  
2006  253   24.91000     5.64000  
2006  254   26.92000     7.01000  
2006  255   26.09000     8.13000  
2006  256   26.15000     8.15000  
2006  257   26.11000     7.79000  
2006  258   25.92000     8.28000  
2006  259   27.55000     7.37000  
2006  260   27.10000     8.64000  
2006  261   27.94000    10.17000  
2006  262   26.67000    11.94000  
2006  263   22.69000     8.10000  
2006  264   17.51000     8.24000  
2006  265   19.29000     6.37000  
2006  266   15.41000     6.10000  
2006  267   12.74000     5.11000  
2006  268   13.55000     5.86000  
2006  269   12.63000     3.59000  
2006  270   21.41000     4.42000  
2006  271   25.20000     6.04000  
2006  272   25.41000     5.87000  
2006  273   26.41000     5.47000  
2006  274   26.57000     9.28000  
2006  275   22.83000     9.13000  
2006  276   14.21000     6.84000  
2006  277   18.10000     3.99000  
2006  278   18.37000     3.74000  
2006  279   17.27000     6.15000  
2006  280   15.56000     1.34000  
2006  281   17.13000    -0.40000  
2006  282   13.96000    -1.97000  
2006  283   15.54000    -1.73000  
2006  284   18.17000     2.12000  
2006  285   19.03000     3.22000  
2006  286   17.19000     2.45000  
2006  287   18.94000     2.72000  
2006  288   16.66000     1.91000  
2006  289   17.21000     1.59000  
2006  290   15.97000     2.21000  
2006  291   17.31000     2.06000  
2006  292   19.57000    -0.33000  
2006  293   18.98000    -1.28000  
2006  294    3.53000    -4.17000  
2006  295    5.98000    -9.04000  
2006  296    8.57000    -9.03000  
2006  297   12.37000    -6.49000  
2006  298   10.73000    -4.79000  
2006  299   11.30000    -7.19000  
2006  300    9.75000    -8.00000  
2006  301   10.12000    -5.53000  
2006  302   10.98000    -6.80000  
2006  303   10.33000    -6.81000  
2006  304   11.74000    -5.83000  
2006  305   12.60000    -5.74000  
2006  306   13.17000    -5.53000  
2006  307   10.64000    -6.01000  
2006  308    9.26000    -4.53000  
2006  309   10.17000    -2.82000  
2006  310   11.70000    -5.56000  
2006  311    9.55000    -3.67000  
2006  312   11.63000    -3.61000  
2006  313    9.20000    -4.29000  
2006  314    5.57000    -3.63000  
2006  315    3.16000    -5.91000  
2006  316    0.44000   -11.28000  
2006  317    2.82000   -10.85000  
2006  318    0.79000    -9.75000  
2006  319    3.31000    -8.83000  
2006  320   -0.86000   -12.31000  
2006  321   -0.74000   -14.85000  
2006  322    0.91000   -14.97000  
2006  323    2.43000   -14.82000  
2006  324    2.97000   -12.98000  
2006  325    2.35000   -12.51000  
2006  326    2.16000    -9.90000  
2006  327    1.93000   -15.00000  
2006  328    4.46000   -15.01000  
2006  329    0.57000   -12.52000  
2006  330    3.11000   -13.56000  
2006  331    2.97000   -14.08000  
2006  332    5.72000    -7.95000  
2006  333    5.77000    -7.92000  
2006  334    2.98000    -7.21000  
2006  335    5.60000    -7.79000  
2006  336   -3.12000   -16.10000  
2006  337  -13.16000   -25.24000  
2006  338  -10.69000   -25.28000  
2006  339   -5.30000   -23.50000  
2006  340   -2.54000   -11.13000  
2006  341   -1.25000    -9.87000  
2006  342    5.70000    -4.83000  
2006  343    4.45000   -13.65000  
2006  344    3.54000   -14.76000  
2006  345    2.48000   -12.21000  
2006  346   -2.34000   -12.39000  
2006  347   -2.25000   -14.29000  
2006  348    1.36000   -14.54000  
2006  349    1.72000   -11.42000  
2006  350   -0.74000   -16.88000  
2006  351   -0.10000   -17.31000  
2006  352    0.79000   -12.56000  
2006  353   -3.55000   -12.22000  
2006  354   -4.79000   -21.44000  
2006  355  -16.31000   -21.57000  
2006  356   -9.29000   -21.08000  
2006  357   -2.95000   -20.18000  
2006  358   -5.92000   -20.22000  
2006  359   -9.36000   -19.23000  
2006  360   -6.26000   -14.00000  
2006  361  -14.29000   -23.24000  
2006  362  -13.18000   -24.69000  
2006  363  -11.48000   -24.67000  
2006  364  -12.14000   -25.73000  
2006  365   -9.82000   -25.88000  
2007    1   -7.51000   -24.20000  
2007    2   -5.83000   -21.93000  
2007    3   -5.81000   -21.21000  
2007    4   -4.90000   -20.23000  
2007    5   -3.53000   -20.54000  
2007    6   -2.59000   -16.31000  
2007    7   -4.05000   -16.79000  
2007    8   -3.42000   -17.39000  
2007    9   -5.36000   -15.64000  
2007   10   -6.62000   -17.88000  
2007   11   -6.96000   -17.47000  
2007   12   -7.30000   -18.85000  
2007   13   -5.95000   -20.13000  
2007   14   -6.31000   -21.06000  
2007   15   -9.07000   -20.92000  
2007   16   -5.39000   -19.82000  
2007   17   -8.61000   -20.51000  
2007   18  -10.58000   -19.06000  
2007   19  -12.77000   -23.51000  
2007   20  -15.92000   -29.65000  
2007   21  -14.33000   -33.45000  
2007   22  -17.69000   -33.24000  
2007   23  -20.98000   -32.42000  
2007   24  -22.37000   -32.12000  
2007   25  -19.82000   -29.79000  
2007   26  -17.75000   -30.22000  
2007   27  -14.98000   -29.42000  
2007   28  -14.78000   -28.36000  
2007   29  -14.60000   -29.00000  
2007   30  -14.27000   -30.42000  
2007   31  -12.85000   -30.75000  
2007   32  -11.74000   -30.43000  
2007   33   -8.93000   -24.46000  
2007   34  -11.21000   -25.27000  
2007   35   -8.75000   -27.74000  
2007   36   -8.08000   -27.15000  
2007   37  -12.52000   -30.45000  
2007   38  -10.28000   -30.05000  
2007   39   -7.88000   -29.28000  
2007   40   -4.81000   -26.07000  
2007   41   -8.66000   -26.53000  
2007   42   -9.02000   -26.65000  
2007   43   -7.46000   -22.45000  
2007   44   -4.80000   -21.23000  
2007   45   -5.21000   -22.97000  
2007   46   -6.72000   -18.39000  
2007   47   -4.69000   -19.40000  
2007   48   -1.35000   -17.93000  
2007   49    2.55000   -18.43000  
2007   50    4.73000   -13.22000  
2007   51    3.35000   -11.41000  
2007   52    5.71000   -11.29000  
2007   53   -0.54000   -11.38000  
2007   54   -1.24000    -9.11000  
2007   55   -0.93000   -17.41000  
2007   56   -1.10000   -18.18000  
2007   57    1.82000   -17.22000  
2007   58    3.91000    -9.70000  
2007   59    8.02000    -7.76000  
2007   60    6.60000   -11.87000  
2007   61    9.32000   -11.84000  
2007   62    8.78000    -9.52000  
2007   63    9.70000    -8.00000  
2007   64    7.78000    -5.35000  
2007   65    6.14000    -6.82000  
2007   66    9.39000    -8.25000  
2007   67   12.94000    -7.95000  
2007   68   13.50000    -2.45000  
2007   69   12.94000    -2.81000  
2007   70    5.78000    -9.43000  
2007   71    2.60000    -9.35000  
2007   72   14.97000    -5.40000  
2007   73    7.36000    -6.17000  
2007   74   14.43000    -6.18000  
2007   75   17.86000    -0.38000  
2007   76   16.49000    -1.37000  
2007   77    7.98000    -3.37000  
2007   78    9.35000    -3.01000  
2007   79    6.79000    -5.94000  
2007   80    9.42000    -8.22000  
2007   81   10.86000    -7.61000  
2007   82   14.60000    -5.81000  
2007   83   15.72000    -3.97000  
2007   84   17.47000    -2.21000  
2007   85   10.13000    -5.39000  
2007   86    2.52000    -5.87000  
2007   87    7.21000    -4.23000  
2007   88    4.27000    -3.77000  
2007   89    1.38000    -6.88000  
2007   90    3.42000    -7.56000  
2007   91    8.23000    -8.82000  
2007   92   12.24000    -7.80000  
2007   93   13.08000    -5.36000  
2007   94   15.13000    -4.60000  
2007   95   17.56000    -1.51000  
2007   96   19.42000    -0.27000  
2007   97   16.38000     0.69000  
2007   98   17.93000     0.40000  