168149tmp.tem: Temperature data - file written by SWAT+ editor 2025-11-04 13:23:50.694556
nbyr     tstep       lat       lon      elev
  14         0    41.781    97.031  1766.000
2005    1   -6.38000   -23.39000  
2005    2   -7.23000   -21.16000  
2005    3   -6.21000   -19.74000  
2005    4   -4.30000   -18.74000  
2005    5   -1.41000   -17.78000  
2005    6   -2.23000   -15.52000  
2005    7   -2.90000   -14.61000  
2005    8   -1.47000   -15.29000  
2005    9   -4.29000   -15.17000  
2005   10   -4.23000   -17.90000  
2005   11   -5.55000   -18.67000  
2005   12   -5.80000   -19.11000  
2005   13   -4.79000   -19.25000  
2005   14   -5.05000   -20.71000  
2005   15   -8.26000   -20.35000  
2005   16   -4.40000   -19.34000  
2005   17   -4.86000   -20.15000  
2005   18  -10.26000   -17.03000  
2005   19  -14.47000   -24.59000  
2005   20  -16.58000   -30.20000  
2005   21  -12.73000   -29.87000  
2005   22  -13.35000   -29.60000  
2005   23  -16.90000   -30.33000  
2005   24  -17.97000   -30.37000  
2005   25  -15.89000   -28.30000  
2005   26  -14.02000   -27.88000  
2005   27  -12.46000   -27.75000  
2005   28  -13.43000   -28.37000  
2005   29  -13.25000   -27.43000  
2005   30  -10.98000   -27.87000  
2005   31  -11.41000   -28.68000  
2005   32   -9.01000   -29.10000  
2005   33   -8.26000   -22.38000  
2005   34  -11.68000   -25.46000  
2005   35   -6.79000   -26.16000  
2005   36   -6.49000   -23.47000  
2005   37  -11.50000   -27.89000  
2005   38  -10.26000   -27.31000  
2005   39   -7.16000   -25.57000  
2005   40   -4.61000   -23.17000  
2005   41   -8.19000   -24.31000  
2005   42   -7.11000   -24.85000  
2005   43   -6.59000   -19.28000  
2005   44   -5.49000   -18.99000  
2005   45   -2.77000   -21.76000  
2005   46   -4.31000   -17.71000  
2005   47   -1.54000   -16.78000  
2005   48   -0.63000   -15.95000  
2005   49    2.61000   -16.42000  
2005   50    5.67000    -9.29000  
2005   51    3.81000   -10.31000  
2005   52    6.32000   -11.15000  
2005   53    2.35000   -10.94000  
2005   54   -0.57000    -9.86000  
2005   55   -2.79000   -17.73000  
2005   56   -1.21000   -19.40000  
2005   57    2.03000   -18.51000  
2005   58    2.91000   -10.14000  
2005   59    7.45000    -7.70000  
2005   60    6.90000   -12.60000  
2005   61   10.07000   -12.37000  
2005   62    9.67000   -11.39000  
2005   63    8.82000   -10.30000  
2005   64    6.80000    -6.31000  
2005   65    5.80000    -6.66000  
2005   66    8.00000    -8.98000  
2005   67   11.48000    -9.00000  
2005   68   12.08000    -2.41000  
2005   69   11.88000    -2.19000  
2005   70    1.10000   -12.25000  
2005   71    4.52000   -11.90000  
2005   72   14.85000    -5.81000  
2005   73    6.67000    -7.75000  
2005   74   13.79000    -6.93000  
2005   75   15.95000     0.06000  
2005   76   14.36000    -1.45000  
2005   77    7.12000    -3.54000  
2005   78    8.54000    -4.08000  
2005   79    3.80000    -6.75000  
2005   80    7.02000   -11.22000  
2005   81   10.43000   -10.93000  
2005   82   13.15000    -5.98000  
2005   83   14.39000    -3.61000  
2005   84   16.18000    -3.24000  
2005   85    8.42000    -8.40000  
2005   86    2.75000    -9.34000  
2005   87    5.03000    -5.83000  
2005   88   -0.13000    -6.25000  
2005   89   -2.67000    -9.09000  
2005   90    1.15000    -9.22000  
2005   91    6.11000    -9.96000  
2005   92   11.11000    -9.62000  
2005   93   11.17000    -6.05000  
2005   94   12.99000    -5.45000  
2005   95   15.49000    -2.84000  
2005   96   17.80000    -2.32000  
2005   97   14.04000    -0.77000  
2005   98   15.32000    -1.17000  
2005   99    9.63000    -0.62000  
2005  100    8.98000    -2.85000  
2005  101    8.98000    -4.89000  
2005  102   13.30000    -3.07000  
2005  103   14.62000    -2.99000  
2005  104   18.00000     0.32000  
2005  105   20.62000     4.20000  
2005  106   19.67000     3.33000  
2005  107   22.38000     5.05000  
2005  108   14.64000    -6.04000  
2005  109    2.07000    -8.18000  
2005  110    0.47000    -9.66000  
2005  111    4.48000    -8.08000  
2005  112   10.24000    -7.40000  
2005  113   16.38000    -4.27000  
2005  114   19.62000    -0.66000  
2005  115   19.28000     5.93000  
2005  116   18.56000     5.23000  
2005  117   23.24000     8.49000  
2005  118   23.00000     4.14000  
2005  119   14.47000     0.85000  
2005  120   22.85000     3.27000  
2005  121   10.41000     0.12000  
2005  122    4.89000    -5.16000  
2005  123   15.78000    -1.11000  
2005  124   22.72000     2.80000  
2005  125   23.53000     7.06000  
2005  126   16.46000     5.70000  
2005  127   17.40000     3.96000  
2005  128   11.65000    -2.12000  
2005  129   17.76000    -0.13000  
2005  130   22.43000     2.83000  
2005  131   22.49000     4.24000  
2005  132   23.43000     7.61000  
2005  133   26.56000    11.16000  
2005  134   26.30000    11.47000  
2005  135   27.66000    14.58000  
2005  136   24.91000    10.32000  
2005  137   22.88000     7.94000  
2005  138   22.79000     9.88000  
2005  139   22.28000     6.68000  
2005  140   23.64000    10.89000  
2005  141   22.85000     9.95000  
2005  142   24.31000     9.13000  
2005  143   26.50000    10.73000  
2005  144   27.26000    12.71000  
2005  145   24.02000     7.90000  
2005  146   20.23000     6.76000  
2005  147   24.90000    11.59000  
2005  148   21.86000     7.67000  
2005  149   23.01000     7.42000  
2005  150   27.19000    13.69000  
2005  151   26.90000    12.26000  
2005  152   27.68000    13.36000  
2005  153   29.29000    13.05000  
2005  154   30.31000    14.47000  
2005  155   24.16000    14.85000  
2005  156   22.32000     9.30000  
2005  157   25.73000    11.05000  
2005  158   27.31000    13.17000  
2005  159   30.07000    14.26000  
2005  160   31.14000    18.41000  
2005  161   30.73000    15.15000  
2005  162   31.35000    12.55000  
2005  163   22.75000     7.08000  
2005  164   19.31000     6.29000  
2005  165   23.90000     9.28000  
2005  166   27.70000     8.61000  
2005  167   26.51000    12.64000  
2005  168   27.95000    15.30000  
2005  169   19.85000    10.38000  
2005  170   20.67000     6.48000  
2005  171   25.06000    11.24000  
2005  172   21.97000     9.26000  
2005  173   23.51000     9.85000  
2005  174   27.17000    12.55000  
2005  175   28.22000    17.39000  
2005  176   28.74000    13.95000  
2005  177   28.92000    15.21000  
2005  178   25.24000    14.41000  
2005  179   25.97000    15.02000  
2005  180   28.34000    12.70000  
2005  181   30.62000    17.73000  
2005  182   32.10000    19.11000  
2005  183   25.80000    14.91000  
2005  184   25.42000    11.79000  
2005  185   30.16000    13.87000  
2005  186   29.71000    17.74000  
2005  187   27.94000    14.08000  
2005  188   28.80000    17.13000  
2005  189   25.73000    13.85000  
2005  190   25.24000    14.50000  
2005  191   25.33000    10.60000  
2005  192   26.75000    13.40000  
2005  193   25.98000    14.13000  
2005  194   27.66000    14.82000  
2005  195   30.11000    14.47000  
2005  196   30.46000    18.08000  
2005  197   20.38000    10.19000  
2005  198   23.38000    13.30000  
2005  199   24.84000    12.56000  
2005  200   29.15000    15.58000  
2005  201   29.52000    17.38000  
2005  202   26.41000    14.23000  
2005  203   29.51000    15.90000  
2005  204   26.51000    16.82000  
2005  205   30.03000    17.97000  
2005  206   21.13000    14.44000  
2005  207   25.84000    12.92000  
2005  208   24.85000    11.72000  
2005  209   27.43000    14.79000  
2005  210   20.02000    14.41000  
2005  211   25.93000    15.35000  
2005  212   26.52000    13.76000  
2005  213   29.64000    14.20000  
2005  214   32.07000    18.24000  
2005  215   32.91000    17.92000  
2005  216   33.95000    18.82000  
2005  217   29.06000    11.50000  
2005  218   21.52000    12.50000  
2005  219   24.07000    11.13000  
2005  220   26.59000    10.53000  
2005  221   26.13000    12.01000  
2005  222   26.65000    10.40000  
2005  223   28.09000    11.87000  
2005  224   27.61000    12.56000  
2005  225   28.17000    12.88000  
2005  226   28.20000    15.92000  
2005  227   23.93000    10.06000  
2005  228   28.14000    12.45000  
2005  229   27.32000    16.25000  
2005  230   28.41000    16.49000  
2005  231   21.22000     9.14000  
2005  232   14.75000     6.69000  
2005  233   23.24000     7.89000  
2005  234   25.26000    11.49000  
2005  235   26.43000    11.43000  
2005  236   25.56000    11.21000  
2005  237   23.92000     7.25000  
2005  238   26.09000     9.73000  
2005  239   25.07000     8.94000  
2005  240    9.58000     6.36000  
2005  241   17.86000     2.19000  
2005  242   23.91000     3.96000  
2005  243   24.86000     8.55000  
2005  244   22.64000     8.90000  
2005  245   23.03000     7.36000  
2005  246   22.71000     7.97000  
2005  247   22.16000    10.44000  
2005  248   23.29000     9.36000  
2005  249   24.32000     8.28000  
2005  250   17.30000     5.39000  
2005  251   18.41000     1.62000  
2005  252   18.18000     3.06000  
2005  253   23.34000     4.95000  
2005  254   25.95000     5.78000  
2005  255   24.31000     6.49000  
2005  256   24.31000     8.21000  
2005  257   24.50000     6.92000  
2005  258   23.79000     8.12000  
2005  259   25.29000     5.89000  
2005  260   26.02000     6.75000  
2005  261   26.81000     8.43000  
2005  262   25.03000    10.27000  
2005  263   21.27000     6.67000  
2005  264   16.64000     6.13000  
2005  265   18.94000     5.49000  
2005  266   15.08000     3.05000  
2005  267   14.15000     2.65000  
2005  268   13.48000     4.48000  
2005  269   13.32000     3.01000  
2005  270   21.66000     4.72000  
2005  271   23.89000     5.92000  
2005  272   25.03000     5.52000  
2005  273   25.54000     4.65000  
2005  274   26.08000     7.63000  
2005  275   21.04000     9.63000  
2005  276   16.72000     5.99000  
2005  277   17.06000     4.09000  
2005  278   16.66000     3.99000  
2005  279   15.64000     3.84000  
2005  280   14.28000     0.07000  
2005  281   14.29000    -2.44000  
2005  282   13.25000    -3.11000  
2005  283   14.46000    -2.92000  
2005  284   17.20000     1.61000  
2005  285   17.42000     2.34000  
2005  286   16.00000     1.36000  
2005  287   17.05000     0.86000  
2005  288   15.61000     0.65000  
2005  289   16.88000     1.05000  
2005  290   14.72000     0.13000  
2005  291   15.76000     1.56000  
2005  292   17.83000    -1.69000  
2005  293   17.90000    -3.81000  
2005  294   -0.85000    -5.67000  
2005  295    5.09000   -10.45000  
2005  296    8.65000    -8.93000  
2005  297   12.00000    -5.23000  
2005  298   10.03000    -6.71000  
2005  299   11.34000    -7.85000  
2005  300   10.39000    -9.76000  
2005  301    9.44000    -5.39000  
2005  302    9.67000    -6.73000  
2005  303   10.09000    -6.64000  
2005  304   10.19000    -7.22000  
2005  305   12.11000    -7.05000  
2005  306   12.28000    -5.76000  
2005  307    8.42000    -6.55000  
2005  308    7.44000    -5.27000  
2005  309    8.51000    -2.31000  
2005  310   10.45000    -7.28000  
2005  311    9.18000    -4.67000  
2005  312   10.98000    -3.76000  
2005  313    9.90000    -4.96000  
2005  314    4.61000    -3.94000  
2005  315    0.83000    -9.30000  
2005  316   -0.67000   -13.02000  
2005  317    1.61000   -11.73000  
2005  318   -1.59000   -11.29000  
2005  319    2.00000    -8.93000  
2005  320   -3.09000   -14.97000  
2005  321   -1.80000   -17.37000  
2005  322    0.94000   -17.60000  
2005  323    3.04000   -16.53000  
2005  324    3.76000   -14.18000  
2005  325    2.53000   -11.86000  
2005  326    1.07000   -11.20000  
2005  327    0.31000   -15.79000  
2005  328    4.54000   -15.53000  
2005  329   -0.44000   -12.94000  
2005  330    5.15000   -12.59000  
2005  331    3.05000   -13.02000  
2005  332    4.97000    -7.36000  
2005  333    5.11000    -6.47000  
2005  334    2.01000    -8.06000  
2005  335    4.58000    -9.01000  
2005  336   -5.02000   -17.66000  
2005  337  -12.85000   -24.67000  
2005  338   -5.38000   -24.88000  
2005  339   -1.68000   -20.17000  
2005  340   -2.32000   -12.17000  
2005  341   -1.19000   -12.31000  
2005  342    5.07000    -4.99000  
2005  343    4.99000   -14.23000  
2005  344    4.79000   -14.80000  
2005  345    4.19000   -11.33000  
2005  346   -4.51000   -12.84000  
2005  347   -0.64000   -14.42000  
2005  348    1.74000   -14.59000  
2005  349    1.47000   -11.34000  
2005  350    0.02000   -15.71000  
2005  351    2.58000   -16.34000  
2005  352    2.31000   -11.81000  
2005  353   -3.63000   -14.82000  
2005  354   -5.23000   -21.25000  
2005  355  -15.18000   -21.02000  
2005  356   -8.04000   -19.60000  
2005  357   -0.96000   -18.79000  
2005  358   -4.92000   -19.08000  
2005  359   -6.22000   -17.10000  
2005  360   -2.84000   -16.10000  
2005  361  -15.88000   -22.70000  
2005  362  -10.53000   -24.67000  
2005  363   -7.34000   -23.52000  
2005  364   -6.94000   -22.85000  
2005  365   -5.33000   -21.47000  
2006    1   -6.38000   -23.39000  
2006    2   -7.23000   -21.16000  
2006    3   -6.21000   -19.74000  
2006    4   -4.30000   -18.74000  
2006    5   -1.41000   -17.78000  
2006    6   -2.23000   -15.52000  
2006    7   -2.90000   -14.61000  
2006    8   -1.47000   -15.29000  
2006    9   -4.29000   -15.17000  
2006   10   -4.23000   -17.90000  
2006   11   -5.55000   -18.67000  
2006   12   -5.80000   -19.11000  
2006   13   -4.79000   -19.25000  
2006   14   -5.05000   -20.71000  
2006   15   -8.26000   -20.35000  
2006   16   -4.40000   -19.34000  
2006   17   -4.86000   -20.15000  
2006   18  -10.26000   -17.03000  
2006   19  -14.47000   -24.59000  
2006   20  -16.58000   -30.20000  
2006   21  -12.73000   -29.87000  
2006   22  -13.35000   -29.60000  
2006   23  -16.90000   -30.33000  
2006   24  -17.97000   -30.37000  
2006   25  -15.89000   -28.30000  
2006   26  -14.02000   -27.88000  
2006   27  -12.46000   -27.75000  
2006   28  -13.43000   -28.37000  
2006   29  -13.25000   -27.43000  
2006   30  -10.98000   -27.87000  
2006   31  -11.41000   -28.68000  
2006   32   -9.01000   -29.10000  
2006   33   -8.26000   -22.38000  
2006   34  -11.68000   -25.46000  
2006   35   -6.79000   -26.16000  
2006   36   -6.49000   -23.47000  
2006   37  -11.50000   -27.89000  
2006   38  -10.26000   -27.31000  
2006   39   -7.16000   -25.57000  
2006   40   -4.61000   -23.17000  
2006   41   -8.19000   -24.31000  
2006   42   -7.11000   -24.85000  
2006   43   -6.59000   -19.28000  
2006   44   -5.49000   -18.99000  
2006   45   -2.77000   -21.76000  
2006   46   -4.31000   -17.71000  
2006   47   -1.54000   -16.78000  
2006   48   -0.63000   -15.95000  
2006   49    2.61000   -16.42000  
2006   50    5.67000    -9.29000  
2006   51    3.81000   -10.31000  
2006   52    6.32000   -11.15000  
2006   53    2.35000   -10.94000  
2006   54   -0.57000    -9.86000  
2006   55   -2.79000   -17.73000  
2006   56   -1.21000   -19.40000  
2006   57    2.03000   -18.51000  
2006   58    2.91000   -10.14000  
2006   59    7.45000    -7.70000  
2006   60    6.90000   -12.60000  
2006   61   10.07000   -12.37000  
2006   62    9.67000   -11.39000  
2006   63    8.82000   -10.30000  
2006   64    6.80000    -6.31000  
2006   65    5.80000    -6.66000  
2006   66    8.00000    -8.98000  
2006   67   11.48000    -9.00000  
2006   68   12.08000    -2.41000  
2006   69   11.88000    -2.19000  
2006   70    1.10000   -12.25000  
2006   71    4.52000   -11.90000  
2006   72   14.85000    -5.81000  
2006   73    6.67000    -7.75000  
2006   74   13.79000    -6.93000  
2006   75   15.95000     0.06000  
2006   76   14.36000    -1.45000  
2006   77    7.12000    -3.54000  
2006   78    8.54000    -4.08000  
2006   79    3.80000    -6.75000  
2006   80    7.02000   -11.22000  
2006   81   10.43000   -10.93000  
2006   82   13.15000    -5.98000  
2006   83   14.39000    -3.61000  
2006   84   16.18000    -3.24000  
2006   85    8.42000    -8.40000  
2006   86    2.75000    -9.34000  
2006   87    5.03000    -5.83000  
2006   88   -0.13000    -6.25000  
2006   89   -2.67000    -9.09000  
2006   90    1.15000    -9.22000  
2006   91    6.11000    -9.96000  
2006   92   11.11000    -9.62000  
2006   93   11.17000    -6.05000  
2006   94   12.99000    -5.45000  
2006   95   15.49000    -2.84000  
2006   96   17.80000    -2.32000  
2006   97   14.04000    -0.77000  
2006   98   15.32000    -1.17000  
2006   99    9.63000    -0.62000  
2006  100    8.98000    -2.85000  
2006  101    8.98000    -4.89000  
2006  102   13.30000    -3.07000  
2006  103   14.62000    -2.99000  
2006  104   18.00000     0.32000  
2006  105   20.62000     4.20000  
2006  106   19.67000     3.33000  
2006  107   22.38000     5.05000  
2006  108   14.64000    -6.04000  
2006  109    2.07000    -8.18000  
2006  110    0.47000    -9.66000  
2006  111    4.48000    -8.08000  
2006  112   10.24000    -7.40000  
2006  113   16.38000    -4.27000  
2006  114   19.62000    -0.66000  
2006  115   19.28000     5.93000  
2006  116   18.56000     5.23000  
2006  117   23.24000     8.49000  
2006  118   23.00000     4.14000  
2006  119   14.47000     0.85000  
2006  120   22.85000     3.27000  
2006  121   10.41000     0.12000  
2006  122    4.89000    -5.16000  
2006  123   15.78000    -1.11000  
2006  124   22.72000     2.80000  
2006  125   23.53000     7.06000  
2006  126   16.46000     5.70000  
2006  127   17.40000     3.96000  
2006  128   11.65000    -2.12000  
2006  129   17.76000    -0.13000  
2006  130   22.43000     2.83000  
2006  131   22.49000     4.24000  
2006  132   23.43000     7.61000  
2006  133   26.56000    11.16000  
2006  134   26.30000    11.47000  
2006  135   27.66000    14.58000  
2006  136   24.91000    10.32000  
2006  137   22.88000     7.94000  
2006  138   22.79000     9.88000  
2006  139   22.28000     6.68000  
2006  140   23.64000    10.89000  
2006  141   22.85000     9.95000  
2006  142   24.31000     9.13000  
2006  143   26.50000    10.73000  
2006  144   27.26000    12.71000  
2006  145   24.02000     7.90000  
2006  146   20.23000     6.76000  
2006  147   24.90000    11.59000  
2006  148   21.86000     7.67000  
2006  149   23.01000     7.42000  
2006  150   27.19000    13.69000  
2006  151   26.90000    12.26000  
2006  152   27.68000    13.36000  
2006  153   29.29000    13.05000  
2006  154   30.31000    14.47000  
2006  155   24.16000    14.85000  
2006  156   22.32000     9.30000  
2006  157   25.73000    11.05000  
2006  158   27.31000    13.17000  
2006  159   30.07000    14.26000  
2006  160   31.14000    18.41000  
2006  161   30.73000    15.15000  
2006  162   31.35000    12.55000  
2006  163   22.75000     7.08000  
2006  164   19.31000     6.29000  
2006  165   23.90000     9.28000  
2006  166   27.70000     8.61000  
2006  167   26.51000    12.64000  
2006  168   27.95000    15.30000  
2006  169   19.85000    10.38000  
2006  170   20.67000     6.48000  
2006  171   25.06000    11.24000  
2006  172   21.97000     9.26000  
2006  173   23.51000     9.85000  
2006  174   27.17000    12.55000  
2006  175   28.22000    17.39000  
2006  176   28.74000    13.95000  
2006  177   28.92000    15.21000  
2006  178   25.24000    14.41000  
2006  179   25.97000    15.02000  
2006  180   28.34000    12.70000  
2006  181   30.62000    17.73000  
2006  182   32.10000    19.11000  
2006  183   25.80000    14.91000  
2006  184   25.42000    11.79000  
2006  185   30.16000    13.87000  
2006  186   29.71000    17.74000  
2006  187   27.94000    14.08000  
2006  188   28.80000    17.13000  
2006  189   25.73000    13.85000  
2006  190   25.24000    14.50000  
2006  191   25.33000    10.60000  
2006  192   26.75000    13.40000  
2006  193   25.98000    14.13000  
2006  194   27.66000    14.82000  
2006  195   30.11000    14.47000  
2006  196   30.46000    18.08000  
2006  197   20.38000    10.19000  
2006  198   23.38000    13.30000  
2006  199   24.84000    12.56000  
2006  200   29.15000    15.58000  
2006  201   29.52000    17.38000  
2006  202   26.41000    14.23000  
2006  203   29.51000    15.90000  
2006  204   26.51000    16.82000  
2006  205   30.03000    17.97000  
2006  206   21.13000    14.44000  
2006  207   25.84000    12.92000  
2006  208   24.85000    11.72000  
2006  209   27.43000    14.79000  
2006  210   20.02000    14.41000  
2006  211   25.93000    15.35000  
2006  212   26.52000    13.76000  
2006  213   29.64000    14.20000  
2006  214   32.07000    18.24000  
2006  215   32.91000    17.92000  
2006  216   33.95000    18.82000  
2006  217   29.06000    11.50000  
2006  218   21.52000    12.50000  
2006  219   24.07000    11.13000  
2006  220   26.59000    10.53000  
2006  221   26.13000    12.01000  
2006  222   26.65000    10.40000  
2006  223   28.09000    11.87000  
2006  224   27.61000    12.56000  
2006  225   28.17000    12.88000  
2006  226   28.20000    15.92000  
2006  227   23.93000    10.06000  
2006  228   28.14000    12.45000  
2006  229   27.32000    16.25000  
2006  230   28.41000    16.49000  
2006  231   21.22000     9.14000  
2006  232   14.75000     6.69000  
2006  233   23.24000     7.89000  
2006  234   25.26000    11.49000  
2006  235   26.43000    11.43000  
2006  236   25.56000    11.21000  
2006  237   23.92000     7.25000  
2006  238   26.09000     9.73000  
2006  239   25.07000     8.94000  
2006  240    9.58000     6.36000  
2006  241   17.86000     2.19000  
2006  242   23.91000     3.96000  
2006  243   24.86000     8.55000  
2006  244   22.64000     8.90000  
2006  245   23.03000     7.36000  
2006  246   22.71000     7.97000  
2006  247   22.16000    10.44000  
2006  248   23.29000     9.36000  
2006  249   24.32000     8.28000  
2006  250   17.30000     5.39000  
2006  251   18.41000     1.62000  
2006  252   18.18000     3.06000  
2006  253   23.34000     4.95000  
2006  254   25.95000     5.78000  
2006  255   24.31000     6.49000  
2006  256   24.31000     8.21000  
2006  257   24.50000     6.92000  
2006  258   23.79000     8.12000  
2006  259   25.29000     5.89000  
2006  260   26.02000     6.75000  
2006  261   26.81000     8.43000  
2006  262   25.03000    10.27000  
2006  263   21.27000     6.67000  
2006  264   16.64000     6.13000  
2006  265   18.94000     5.49000  
2006  266   15.08000     3.05000  
2006  267   14.15000     2.65000  
2006  268   13.48000     4.48000  
2006  269   13.32000     3.01000  
2006  270   21.66000     4.72000  
2006  271   23.89000     5.92000  
2006  272   25.03000     5.52000  
2006  273   25.54000     4.65000  
2006  274   26.08000     7.63000  
2006  275   21.04000     9.63000  
2006  276   16.72000     5.99000  
2006  277   17.06000     4.09000  
2006  278   16.66000     3.99000  
2006  279   15.64000     3.84000  
2006  280   14.28000     0.07000  
2006  281   14.29000    -2.44000  
2006  282   13.25000    -3.11000  
2006  283   14.46000    -2.92000  
2006  284   17.20000     1.61000  
2006  285   17.42000     2.34000  
2006  286   16.00000     1.36000  
2006  287   17.05000     0.86000  
2006  288   15.61000     0.65000  
2006  289   16.88000     1.05000  
2006  290   14.72000     0.13000  
2006  291   15.76000     1.56000  
2006  292   17.83000    -1.69000  
2006  293   17.90000    -3.81000  
2006  294   -0.85000    -5.67000  
2006  295    5.09000   -10.45000  
2006  296    8.65000    -8.93000  
2006  297   12.00000    -5.23000  
2006  298   10.03000    -6.71000  
2006  299   11.34000    -7.85000  
2006  300   10.39000    -9.76000  
2006  301    9.44000    -5.39000  
2006  302    9.67000    -6.73000  
2006  303   10.09000    -6.64000  
2006  304   10.19000    -7.22000  
2006  305   12.11000    -7.05000  
2006  306   12.28000    -5.76000  
2006  307    8.42000    -6.55000  
2006  308    7.44000    -5.27000  
2006  309    8.51000    -2.31000  
2006  310   10.45000    -7.28000  
2006  311    9.18000    -4.67000  
2006  312   10.98000    -3.76000  
2006  313    9.90000    -4.96000  
2006  314    4.61000    -3.94000  
2006  315    0.83000    -9.30000  
2006  316   -0.67000   -13.02000  
2006  317    1.61000   -11.73000  
2006  318   -1.59000   -11.29000  
2006  319    2.00000    -8.93000  
2006  320   -3.09000   -14.97000  
2006  321   -1.80000   -17.37000  
2006  322    0.94000   -17.60000  
2006  323    3.04000   -16.53000  
2006  324    3.76000   -14.18000  
2006  325    2.53000   -11.86000  
2006  326    1.07000   -11.20000  
2006  327    0.31000   -15.79000  
2006  328    4.54000   -15.53000  
2006  329   -0.44000   -12.94000  
2006  330    5.15000   -12.59000  
2006  331    3.05000   -13.02000  
2006  332    4.97000    -7.36000  
2006  333    5.11000    -6.47000  
2006  334    2.01000    -8.06000  
2006  335    4.58000    -9.01000  
2006  336   -5.02000   -17.66000  
2006  337  -12.85000   -24.67000  
2006  338   -5.38000   -24.88000  
2006  339   -1.68000   -20.17000  
2006  340   -2.32000   -12.17000  
2006  341   -1.19000   -12.31000  
2006  342    5.07000    -4.99000  
2006  343    4.99000   -14.23000  
2006  344    4.79000   -14.80000  
2006  345    4.19000   -11.33000  
2006  346   -4.51000   -12.84000  
2006  347   -0.64000   -14.42000  
2006  348    1.74000   -14.59000  
2006  349    1.47000   -11.34000  
2006  350    0.02000   -15.71000  
2006  351    2.58000   -16.34000  
2006  352    2.31000   -11.81000  
2006  353   -3.63000   -14.82000  
2006  354   -5.23000   -21.25000  
2006  355  -15.18000   -21.02000  
2006  356   -8.04000   -19.60000  
2006  357   -0.96000   -18.79000  
2006  358   -4.92000   -19.08000  
2006  359   -6.22000   -17.10000  
2006  360   -2.84000   -16.10000  
2006  361  -15.88000   -22.70000  
2006  362  -10.53000   -24.67000  
2006  363   -7.34000   -23.52000  
2006  364   -6.94000   -22.85000  
2006  365   -5.33000   -21.47000  
2007    1   -6.38000   -23.39000  
2007    2   -7.23000   -21.16000  
2007    3   -6.21000   -19.74000  
2007    4   -4.30000   -18.74000  
2007    5   -1.41000   -17.78000  
2007    6   -2.23000   -15.52000  
2007    7   -2.90000   -14.61000  
2007    8   -1.47000   -15.29000  
2007    9   -4.29000   -15.17000  
2007   10   -4.23000   -17.90000  
2007   11   -5.55000   -18.67000  
2007   12   -5.80000   -19.11000  
2007   13   -4.79000   -19.25000  
2007   14   -5.05000   -20.71000  
2007   15   -8.26000   -20.35000  
2007   16   -4.40000   -19.34000  
2007   17   -4.86000   -20.15000  
2007   18  -10.26000   -17.03000  
2007   19  -14.47000   -24.59000  
2007   20  -16.58000   -30.20000  
2007   21  -12.73000   -29.87000  
2007   22  -13.35000   -29.60000  
2007   23  -16.90000   -30.33000  
2007   24  -17.97000   -30.37000  
2007   25  -15.89000   -28.30000  
2007   26  -14.02000   -27.88000  
2007   27  -12.46000   -27.75000  
2007   28  -13.43000   -28.37000  
2007   29  -13.25000   -27.43000  
2007   30  -10.98000   -27.87000  
2007   31  -11.41000   -28.68000  
2007   32   -9.01000   -29.10000  
2007   33   -8.26000   -22.38000  
2007   34  -11.68000   -25.46000  
2007   35   -6.79000   -26.16000  
2007   36   -6.49000   -23.47000  
2007   37  -11.50000   -27.89000  
2007   38  -10.26000   -27.31000  
2007   39   -7.16000   -25.57000  
2007   40   -4.61000   -23.17000  
2007   41   -8.19000   -24.31000  
2007   42   -7.11000   -24.85000  
2007   43   -6.59000   -19.28000  
2007   44   -5.49000   -18.99000  
2007   45   -2.77000   -21.76000  
2007   46   -4.31000   -17.71000  
2007   47   -1.54000   -16.78000  
2007   48   -0.63000   -15.95000  
2007   49    2.61000   -16.42000  
2007   50    5.67000    -9.29000  
2007   51    3.81000   -10.31000  
2007   52    6.32000   -11.15000  
2007   53    2.35000   -10.94000  
2007   54   -0.57000    -9.86000  
2007   55   -2.79000   -17.73000  
2007   56   -1.21000   -19.40000  
2007   57    2.03000   -18.51000  
2007   58    2.91000   -10.14000  
2007   59    7.45000    -7.70000  
2007   60    6.90000   -12.60000  
2007   61   10.07000   -12.37000  
2007   62    9.67000   -11.39000  
2007   63    8.82000   -10.30000  
2007   64    6.80000    -6.31000  
2007   65    5.80000    -6.66000  
2007   66    8.00000    -8.98000  
2007   67   11.48000    -9.00000  
2007   68   12.08000    -2.41000  
2007   69   11.88000    -2.19000  
2007   70    1.10000   -12.25000  
2007   71    4.52000   -11.90000  
2007   72   14.85000    -5.81000  
2007   73    6.67000    -7.75000  
2007   74   13.79000    -6.93000  
2007   75   15.95000     0.06000  
2007   76   14.36000    -1.45000  
2007   77    7.12000    -3.54000  
2007   78    8.54000    -4.08000  
2007   79    3.80000    -6.75000  
2007   80    7.02000   -11.22000  
2007   81   10.43000   -10.93000  
2007   82   13.15000    -5.98000  
2007   83   14.39000    -3.61000  
2007   84   16.18000    -3.24000  
2007   85    8.42000    -8.40000  
2007   86    2.75000    -9.34000  
2007   87    5.03000    -5.83000  
2007   88   -0.13000    -6.25000  
2007   89   -2.67000    -9.09000  
2007   90    1.15000    -9.22000  
2007   91    6.11000    -9.96000  
2007   92   11.11000    -9.62000  
2007   93   11.17000    -6.05000  
2007   94   12.99000    -5.45000  
2007   95   15.49000    -2.84000  
2007   96   17.80000    -2.32000  
2007   97   14.04000    -0.77000  
2007   98   15.32000    -1.17000  