171158tmp.tem: Temperature data - file written by SWAT+ editor 2025-11-04 13:23:50.797995
nbyr     tstep       lat       lon      elev
  14         0    42.531    99.281   947.000
2005    1   -8.75000   -24.48000  
2005    2   -6.24000   -22.78000  
2005    3   -6.83000   -21.48000  
2005    4   -5.94000   -19.56000  
2005    5   -3.50000   -18.28000  
2005    6   -1.95000   -13.13000  
2005    7   -2.04000   -13.99000  
2005    8   -3.21000   -16.15000  
2005    9   -5.62000   -15.78000  
2005   10   -4.91000   -16.40000  
2005   11   -5.61000   -17.06000  
2005   12   -6.47000   -18.16000  
2005   13   -5.10000   -19.63000  
2005   14   -5.96000   -19.47000  
2005   15   -8.20000   -19.38000  
2005   16   -5.78000   -17.77000  
2005   17   -8.08000   -18.00000  
2005   18   -8.57000   -18.25000  
2005   19   -8.07000   -16.60000  
2005   20  -13.09000   -26.47000  
2005   21  -13.55000   -32.50000  
2005   22  -18.89000   -32.39000  
2005   23  -19.25000   -29.98000  
2005   24  -19.32000   -29.93000  
2005   25  -18.50000   -27.37000  
2005   26  -13.53000   -27.38000  
2005   27  -11.92000   -26.49000  
2005   28  -12.45000   -25.74000  
2005   29  -10.70000   -24.83000  
2005   30  -13.51000   -25.40000  
2005   31  -12.88000   -26.48000  
2005   32  -10.47000   -26.35000  
2005   33   -6.12000   -22.97000  
2005   34  -11.44000   -22.07000  
2005   35   -9.05000   -24.15000  
2005   36  -10.63000   -24.04000  
2005   37  -12.50000   -25.40000  
2005   38   -8.73000   -25.00000  
2005   39   -5.79000   -24.54000  
2005   40   -3.76000   -20.24000  
2005   41  -10.59000   -23.49000  
2005   42   -9.74000   -23.50000  
2005   43   -8.28000   -21.19000  
2005   44   -3.45000   -19.10000  
2005   45   -7.43000   -19.01000  
2005   46   -6.43000   -18.65000  
2005   47   -3.29000   -17.01000  
2005   48    0.60000   -14.11000  
2005   49    4.16000   -13.01000  
2005   50    9.11000   -10.57000  
2005   51    4.92000    -7.34000  
2005   52   -0.28000   -10.48000  
2005   53   -2.12000    -9.89000  
2005   54   -2.92000    -8.17000  
2005   55   -0.51000   -16.31000  
2005   56   -0.32000   -15.55000  
2005   57    2.72000   -13.84000  
2005   58    6.02000    -7.01000  
2005   59    9.82000    -5.81000  
2005   60    6.88000    -8.05000  
2005   61    9.44000    -6.38000  
2005   62   11.66000    -5.21000  
2005   63   12.71000    -3.66000  
2005   64   11.00000    -2.52000  
2005   65    6.81000    -4.51000  
2005   66   11.39000    -4.58000  
2005   67   15.35000    -2.06000  
2005   68   16.65000    -0.53000  
2005   69   15.70000     3.41000  
2005   70    9.33000    -5.68000  
2005   71    5.02000    -6.23000  
2005   72   13.23000    -2.73000  
2005   73    9.16000    -4.29000  
2005   74   17.21000    -3.15000  
2005   75   20.03000     0.87000  
2005   76   18.02000    -0.24000  
2005   77    9.47000    -2.00000  
2005   78   11.51000    -1.46000  
2005   79    9.25000    -2.58000  
2005   80   12.33000    -3.59000  
2005   81   12.60000    -3.00000  
2005   82   16.96000    -0.99000  
2005   83   17.51000    -0.20000  
2005   84   19.48000     2.61000  
2005   85   13.28000    -2.77000  
2005   86    6.42000    -3.05000  
2005   87    8.81000    -2.42000  
2005   88    5.52000    -1.88000  
2005   89    6.27000    -3.69000  
2005   90    5.42000    -3.89000  
2005   91   10.39000    -4.62000  
2005   92   15.69000    -2.92000  
2005   93   16.58000    -1.60000  
2005   94   18.17000     0.08000  
2005   95   19.08000     1.12000  
2005   96   21.83000     3.33000  
2005   97   19.09000     5.67000  
2005   98   21.25000     6.61000  
2005   99   13.28000     0.69000  
2005  100   14.07000     1.71000  
2005  101   16.63000     1.76000  
2005  102   18.29000     1.45000  
2005  103   21.45000     3.43000  
2005  104   24.37000     6.03000  
2005  105   26.35000     7.35000  
2005  106   26.34000     7.62000  
2005  107   28.31000     9.50000  
2005  108   23.08000     1.20000  
2005  109   11.17000    -1.76000  
2005  110    6.69000    -1.22000  
2005  111   10.62000    -1.89000  
2005  112   14.83000    -0.52000  
2005  113   20.94000     1.64000  
2005  114   24.33000     5.62000  
2005  115   25.93000    10.80000  
2005  116   26.53000    12.04000  
2005  117   29.50000    12.80000  
2005  118   29.99000     9.90000  
2005  119   17.21000     6.83000  
2005  120   24.77000     9.32000  
2005  121   15.02000     3.97000  
2005  122    9.53000     1.58000  
2005  123   18.07000     3.91000  
2005  124   23.74000     6.99000  
2005  125   28.35000    12.00000  
2005  126   23.17000    10.65000  
2005  127   21.98000    11.66000  
2005  128   14.84000     4.54000  
2005  129   20.50000     5.85000  
2005  130   24.09000     6.72000  
2005  131   23.25000     7.69000  
2005  132   26.94000    10.51000  
2005  133   32.51000    14.68000  
2005  134   33.61000    15.14000  
2005  135   32.48000    17.11000  
2005  136   28.10000    12.68000  
2005  137   27.68000    11.42000  
2005  138   26.20000    11.40000  
2005  139   28.63000    10.99000  
2005  140   27.19000    14.08000  
2005  141   28.50000    14.70000  
2005  142   30.71000    13.95000  
2005  143   32.09000    15.88000  
2005  144   34.51000    18.16000  
2005  145   32.92000    14.49000  
2005  146   24.65000    10.25000  
2005  147   31.20000    14.70000  
2005  148   25.35000     9.28000  
2005  149   26.22000    10.51000  
2005  150   31.88000    16.25000  
2005  151   32.39000    16.16000  
2005  152   31.63000    14.69000  
2005  153   31.52000    16.71000  
2005  154   34.76000    18.86000  
2005  155   31.30000    17.37000  
2005  156   26.68000    14.73000  
2005  157   31.18000    17.60000  
2005  158   35.27000    19.96000  
2005  159   36.98000    19.49000  
2005  160   37.79000    21.70000  
2005  161   36.08000    19.89000  
2005  162   38.54000    19.41000  
2005  163   26.95000    14.30000  
2005  164   29.21000    13.46000  
2005  165   29.04000    15.18000  
2005  166   31.77000    15.13000  
2005  167   29.90000    15.75000  
2005  168   31.15000    17.01000  
2005  169   31.75000    17.94000  
2005  170   27.02000    14.96000  
2005  171   31.35000    18.54000  
2005  172   24.41000    14.72000  
2005  173   28.43000    14.60000  
2005  174   32.03000    17.66000  
2005  175   34.56000    20.02000  
2005  176   35.24000    21.86000  
2005  177   35.60000    21.00000  
2005  178   30.30000    18.66000  
2005  179   27.14000    16.64000  
2005  180   32.61000    17.81000  
2005  181   36.70000    20.01000  
2005  182   37.07000    23.44000  
2005  183   36.26000    24.19000  
2005  184   30.58000    17.32000  
2005  185   35.75000    20.30000  
2005  186   36.57000    21.94000  
2005  187   35.44000    19.42000  
2005  188   34.70000    22.26000  
2005  189   31.73000    21.15000  
2005  190   29.58000    18.97000  
2005  191   30.74000    15.85000  
2005  192   32.42000    18.33000  
2005  193   32.91000    20.31000  
2005  194   27.93000    16.50000  
2005  195   33.73000    18.63000  
2005  196   37.46000    21.58000  
2005  197   32.11000    20.23000  
2005  198   30.63000    19.27000  
2005  199   29.42000    19.06000  
2005  200   33.75000    20.21000  
2005  201   35.90000    22.29000  
2005  202   35.31000    20.77000  
2005  203   36.92000    23.43000  
2005  204   34.39000    22.65000  
2005  205   34.56000    23.49000  
2005  206   35.92000    20.90000  
2005  207   33.14000    20.62000  
2005  208   30.91000    16.93000  
2005  209   30.64000    19.05000  
2005  210   26.95000    20.90000  
2005  211   32.15000    20.27000  
2005  212   35.32000    20.78000  
2005  213   37.15000    20.36000  
2005  214   38.91000    23.39000  
2005  215   40.03000    24.32000  
2005  216   40.46000    22.76000  
2005  217   39.17000    23.73000  
2005  218   32.23000    18.29000  
2005  219   27.84000    17.68000  
2005  220   30.09000    14.91000  
2005  221   30.98000    16.69000  
2005  222   32.46000    17.90000  
2005  223   34.15000    18.00000  
2005  224   34.23000    17.94000  
2005  225   35.90000    19.01000  
2005  226   35.44000    20.84000  
2005  227   31.83000    17.07000  
2005  228   33.87000    17.68000  
2005  229   34.26000    18.94000  
2005  230   35.11000    21.33000  
2005  231   31.08000    15.00000  
2005  232   20.95000    13.96000  
2005  233   29.83000    16.00000  
2005  234   31.21000    17.94000  
2005  235   32.08000    18.05000  
2005  236   32.33000    16.10000  
2005  237   26.32000    11.04000  
2005  238   28.26000    12.45000  
2005  239   32.32000    15.73000  
2005  240   18.22000    10.70000  
2005  241   20.76000     7.80000  
2005  242   27.39000    10.43000  
2005  243   29.71000    12.74000  
2005  244   27.68000    14.45000  
2005  245   29.48000    14.51000  
2005  246   27.64000    12.78000  
2005  247   27.17000    14.15000  
2005  248   28.49000    15.05000  
2005  249   28.35000    14.19000  
2005  250   24.43000     8.65000  
2005  251   21.28000     9.11000  
2005  252   22.50000     9.19000  
2005  253   27.63000    11.06000  
2005  254   31.04000    11.45000  
2005  255   32.18000    13.45000  
2005  256   31.08000    13.91000  
2005  257   29.50000    11.43000  
2005  258   29.86000    11.99000  
2005  259   31.50000    11.53000  
2005  260   29.30000    13.29000  
2005  261   31.54000    15.13000  
2005  262   30.56000    14.95000  
2005  263   28.02000    13.52000  
2005  264   22.39000    12.23000  
2005  265   21.71000    10.20000  
2005  266   19.16000    10.29000  
2005  267   18.62000     8.64000  
2005  268   18.83000     8.92000  
2005  269   17.77000     8.17000  
2005  270   22.63000     8.71000  
2005  271   28.38000    10.34000  
2005  272   28.37000     9.84000  
2005  273   28.90000    11.42000  
2005  274   30.59000    11.94000  
2005  275   27.10000    11.94000  
2005  276   14.10000     8.59000  
2005  277   18.83000     7.10000  
2005  278   19.74000     5.97000  
2005  279   20.68000     6.51000  
2005  280   17.04000     3.43000  
2005  281   20.34000     3.05000  
2005  282   16.75000     1.17000  
2005  283   18.47000     1.93000  
2005  284   20.59000     4.31000  
2005  285   22.34000     6.31000  
2005  286   19.53000     4.72000  
2005  287   22.09000     5.76000  
2005  288   19.27000     3.05000  
2005  289   19.01000     2.86000  
2005  290   16.75000     3.12000  
2005  291   19.82000     3.53000  
2005  292   23.06000     3.91000  
2005  293   21.51000     2.56000  
2005  294    6.93000    -0.67000  
2005  295    7.36000    -6.77000  
2005  296    9.92000    -5.41000  
2005  297   14.62000    -2.42000  
2005  298   13.78000    -1.76000  
2005  299   14.28000    -4.60000  
2005  300   12.24000    -4.36000  
2005  301   13.31000    -1.37000  
2005  302   13.20000    -2.66000  
2005  303   13.19000    -2.22000  
2005  304   14.03000    -2.00000  
2005  305   13.40000    -1.24000  
2005  306   14.21000    -0.29000  
2005  307   12.79000    -0.37000  
2005  308   12.43000     1.06000  
2005  309   13.75000    -0.35000  
2005  310   14.11000    -1.20000  
2005  311   11.56000    -0.89000  
2005  312   13.15000    -2.04000  
2005  313   11.06000    -1.56000  
2005  314    7.10000    -0.55000  
2005  315    7.67000    -2.78000  
2005  316    2.31000    -7.72000  
2005  317    4.33000    -7.23000  
2005  318    2.99000    -6.36000  
2005  319    4.71000    -6.02000  
2005  320    2.57000    -8.62000  
2005  321    1.72000   -11.72000  
2005  322    3.32000   -10.76000  
2005  323    6.56000   -10.90000  
2005  324    5.57000    -9.85000  
2005  325    4.95000    -9.05000  
2005  326    4.55000    -7.24000  
2005  327    3.93000    -9.24000  
2005  328    5.57000    -8.72000  
2005  329    2.71000    -9.38000  
2005  330    4.39000    -9.99000  
2005  331    4.50000    -8.96000  
2005  332    7.06000    -5.34000  
2005  333    7.95000    -5.37000  
2005  334    4.80000    -3.35000  
2005  335    7.66000    -3.46000  
2005  336    1.11000   -12.12000  
2005  337  -10.33000   -21.38000  
2005  338   -8.31000   -21.05000  
2005  339   -3.19000   -17.68000  
2005  340   -0.31000    -9.26000  
2005  341    2.03000    -5.74000  
2005  342    8.29000    -1.24000  
2005  343    6.91000    -9.34000  
2005  344    4.03000   -10.18000  
2005  345    3.84000    -7.33000  
2005  346   -0.23000   -10.83000  
2005  347    0.06000   -12.30000  
2005  348    1.79000   -12.06000  
2005  349    2.24000   -11.82000  
2005  350    0.86000   -13.66000  
2005  351    0.86000   -13.62000  
2005  352    2.36000   -10.24000  
2005  353   -1.93000   -10.37000  
2005  354   -4.58000   -19.13000  
2005  355  -14.21000   -21.24000  
2005  356  -10.17000   -20.68000  
2005  357   -3.20000   -17.53000  
2005  358   -5.46000   -17.36000  
2005  359   -7.91000   -16.67000  
2005  360   -5.71000   -13.15000  
2005  361  -11.22000   -20.24000  
2005  362  -10.44000   -21.69000  
2005  363  -10.35000   -23.19000  
2005  364  -11.43000   -23.05000  
2005  365  -11.23000   -23.43000  
2006    1   -8.75000   -24.48000  
2006    2   -6.24000   -22.78000  
2006    3   -6.83000   -21.48000  
2006    4   -5.94000   -19.56000  
2006    5   -3.50000   -18.28000  
2006    6   -1.95000   -13.13000  
2006    7   -2.04000   -13.99000  
2006    8   -3.21000   -16.15000  
2006    9   -5.62000   -15.78000  
2006   10   -4.91000   -16.40000  
2006   11   -5.61000   -17.06000  
2006   12   -6.47000   -18.16000  
2006   13   -5.10000   -19.63000  
2006   14   -5.96000   -19.47000  
2006   15   -8.20000   -19.38000  
2006   16   -5.78000   -17.77000  
2006   17   -8.08000   -18.00000  
2006   18   -8.57000   -18.25000  
2006   19   -8.07000   -16.60000  
2006   20  -13.09000   -26.47000  
2006   21  -13.55000   -32.50000  
2006   22  -18.89000   -32.39000  
2006   23  -19.25000   -29.98000  
2006   24  -19.32000   -29.93000  
2006   25  -18.50000   -27.37000  
2006   26  -13.53000   -27.38000  
2006   27  -11.92000   -26.49000  
2006   28  -12.45000   -25.74000  
2006   29  -10.70000   -24.83000  
2006   30  -13.51000   -25.40000  
2006   31  -12.88000   -26.48000  
2006   32  -10.47000   -26.35000  
2006   33   -6.12000   -22.97000  
2006   34  -11.44000   -22.07000  
2006   35   -9.05000   -24.15000  
2006   36  -10.63000   -24.04000  
2006   37  -12.50000   -25.40000  
2006   38   -8.73000   -25.00000  
2006   39   -5.79000   -24.54000  
2006   40   -3.76000   -20.24000  
2006   41  -10.59000   -23.49000  
2006   42   -9.74000   -23.50000  
2006   43   -8.28000   -21.19000  
2006   44   -3.45000   -19.10000  
2006   45   -7.43000   -19.01000  
2006   46   -6.43000   -18.65000  
2006   47   -3.29000   -17.01000  
2006   48    0.60000   -14.11000  
2006   49    4.16000   -13.01000  
2006   50    9.11000   -10.57000  
2006   51    4.92000    -7.34000  
2006   52   -0.28000   -10.48000  
2006   53   -2.12000    -9.89000  
2006   54   -2.92000    -8.17000  
2006   55   -0.51000   -16.31000  
2006   56   -0.32000   -15.55000  
2006   57    2.72000   -13.84000  
2006   58    6.02000    -7.01000  
2006   59    9.82000    -5.81000  
2006   60    6.88000    -8.05000  
2006   61    9.44000    -6.38000  
2006   62   11.66000    -5.21000  
2006   63   12.71000    -3.66000  
2006   64   11.00000    -2.52000  
2006   65    6.81000    -4.51000  
2006   66   11.39000    -4.58000  
2006   67   15.35000    -2.06000  
2006   68   16.65000    -0.53000  
2006   69   15.70000     3.41000  
2006   70    9.33000    -5.68000  
2006   71    5.02000    -6.23000  
2006   72   13.23000    -2.73000  
2006   73    9.16000    -4.29000  
2006   74   17.21000    -3.15000  
2006   75   20.03000     0.87000  
2006   76   18.02000    -0.24000  
2006   77    9.47000    -2.00000  
2006   78   11.51000    -1.46000  
2006   79    9.25000    -2.58000  
2006   80   12.33000    -3.59000  
2006   81   12.60000    -3.00000  
2006   82   16.96000    -0.99000  
2006   83   17.51000    -0.20000  
2006   84   19.48000     2.61000  
2006   85   13.28000    -2.77000  
2006   86    6.42000    -3.05000  
2006   87    8.81000    -2.42000  
2006   88    5.52000    -1.88000  
2006   89    6.27000    -3.69000  
2006   90    5.42000    -3.89000  
2006   91   10.39000    -4.62000  
2006   92   15.69000    -2.92000  
2006   93   16.58000    -1.60000  
2006   94   18.17000     0.08000  
2006   95   19.08000     1.12000  
2006   96   21.83000     3.33000  
2006   97   19.09000     5.67000  
2006   98   21.25000     6.61000  
2006   99   13.28000     0.69000  
2006  100   14.07000     1.71000  
2006  101   16.63000     1.76000  
2006  102   18.29000     1.45000  
2006  103   21.45000     3.43000  
2006  104   24.37000     6.03000  
2006  105   26.35000     7.35000  
2006  106   26.34000     7.62000  
2006  107   28.31000     9.50000  
2006  108   23.08000     1.20000  
2006  109   11.17000    -1.76000  
2006  110    6.69000    -1.22000  
2006  111   10.62000    -1.89000  
2006  112   14.83000    -0.52000  
2006  113   20.94000     1.64000  
2006  114   24.33000     5.62000  
2006  115   25.93000    10.80000  
2006  116   26.53000    12.04000  
2006  117   29.50000    12.80000  
2006  118   29.99000     9.90000  
2006  119   17.21000     6.83000  
2006  120   24.77000     9.32000  
2006  121   15.02000     3.97000  
2006  122    9.53000     1.58000  
2006  123   18.07000     3.91000  
2006  124   23.74000     6.99000  
2006  125   28.35000    12.00000  
2006  126   23.17000    10.65000  
2006  127   21.98000    11.66000  
2006  128   14.84000     4.54000  
2006  129   20.50000     5.85000  
2006  130   24.09000     6.72000  
2006  131   23.25000     7.69000  
2006  132   26.94000    10.51000  
2006  133   32.51000    14.68000  
2006  134   33.61000    15.14000  
2006  135   32.48000    17.11000  
2006  136   28.10000    12.68000  
2006  137   27.68000    11.42000  
2006  138   26.20000    11.40000  
2006  139   28.63000    10.99000  
2006  140   27.19000    14.08000  
2006  141   28.50000    14.70000  
2006  142   30.71000    13.95000  
2006  143   32.09000    15.88000  
2006  144   34.51000    18.16000  
2006  145   32.92000    14.49000  
2006  146   24.65000    10.25000  
2006  147   31.20000    14.70000  
2006  148   25.35000     9.28000  
2006  149   26.22000    10.51000  
2006  150   31.88000    16.25000  
2006  151   32.39000    16.16000  
2006  152   31.63000    14.69000  
2006  153   31.52000    16.71000  
2006  154   34.76000    18.86000  
2006  155   31.30000    17.37000  
2006  156   26.68000    14.73000  
2006  157   31.18000    17.60000  
2006  158   35.27000    19.96000  
2006  159   36.98000    19.49000  
2006  160   37.79000    21.70000  
2006  161   36.08000    19.89000  
2006  162   38.54000    19.41000  
2006  163   26.95000    14.30000  
2006  164   29.21000    13.46000  
2006  165   29.04000    15.18000  
2006  166   31.77000    15.13000  
2006  167   29.90000    15.75000  
2006  168   31.15000    17.01000  
2006  169   31.75000    17.94000  
2006  170   27.02000    14.96000  
2006  171   31.35000    18.54000  
2006  172   24.41000    14.72000  
2006  173   28.43000    14.60000  
2006  174   32.03000    17.66000  
2006  175   34.56000    20.02000  
2006  176   35.24000    21.86000  
2006  177   35.60000    21.00000  
2006  178   30.30000    18.66000  
2006  179   27.14000    16.64000  
2006  180   32.61000    17.81000  
2006  181   36.70000    20.01000  
2006  182   37.07000    23.44000  
2006  183   36.26000    24.19000  
2006  184   30.58000    17.32000  
2006  185   35.75000    20.30000  
2006  186   36.57000    21.94000  
2006  187   35.44000    19.42000  
2006  188   34.70000    22.26000  
2006  189   31.73000    21.15000  
2006  190   29.58000    18.97000  
2006  191   30.74000    15.85000  
2006  192   32.42000    18.33000  
2006  193   32.91000    20.31000  
2006  194   27.93000    16.50000  
2006  195   33.73000    18.63000  
2006  196   37.46000    21.58000  
2006  197   32.11000    20.23000  
2006  198   30.63000    19.27000  
2006  199   29.42000    19.06000  
2006  200   33.75000    20.21000  
2006  201   35.90000    22.29000  
2006  202   35.31000    20.77000  
2006  203   36.92000    23.43000  
2006  204   34.39000    22.65000  
2006  205   34.56000    23.49000  
2006  206   35.92000    20.90000  
2006  207   33.14000    20.62000  
2006  208   30.91000    16.93000  
2006  209   30.64000    19.05000  
2006  210   26.95000    20.90000  
2006  211   32.15000    20.27000  
2006  212   35.32000    20.78000  
2006  213   37.15000    20.36000  
2006  214   38.91000    23.39000  
2006  215   40.03000    24.32000  
2006  216   40.46000    22.76000  
2006  217   39.17000    23.73000  
2006  218   32.23000    18.29000  
2006  219   27.84000    17.68000  
2006  220   30.09000    14.91000  
2006  221   30.98000    16.69000  
2006  222   32.46000    17.90000  
2006  223   34.15000    18.00000  
2006  224   34.23000    17.94000  
2006  225   35.90000    19.01000  
2006  226   35.44000    20.84000  
2006  227   31.83000    17.07000  
2006  228   33.87000    17.68000  
2006  229   34.26000    18.94000  
2006  230   35.11000    21.33000  
2006  231   31.08000    15.00000  
2006  232   20.95000    13.96000  
2006  233   29.83000    16.00000  
2006  234   31.21000    17.94000  
2006  235   32.08000    18.05000  
2006  236   32.33000    16.10000  
2006  237   26.32000    11.04000  
2006  238   28.26000    12.45000  
2006  239   32.32000    15.73000  
2006  240   18.22000    10.70000  
2006  241   20.76000     7.80000  
2006  242   27.39000    10.43000  
2006  243   29.71000    12.74000  
2006  244   27.68000    14.45000  
2006  245   29.48000    14.51000  
2006  246   27.64000    12.78000  
2006  247   27.17000    14.15000  
2006  248   28.49000    15.05000  
2006  249   28.35000    14.19000  
2006  250   24.43000     8.65000  
2006  251   21.28000     9.11000  
2006  252   22.50000     9.19000  
2006  253   27.63000    11.06000  
2006  254   31.04000    11.45000  
2006  255   32.18000    13.45000  
2006  256   31.08000    13.91000  
2006  257   29.50000    11.43000  
2006  258   29.86000    11.99000  
2006  259   31.50000    11.53000  
2006  260   29.30000    13.29000  
2006  261   31.54000    15.13000  
2006  262   30.56000    14.95000  
2006  263   28.02000    13.52000  
2006  264   22.39000    12.23000  
2006  265   21.71000    10.20000  
2006  266   19.16000    10.29000  
2006  267   18.62000     8.64000  
2006  268   18.83000     8.92000  
2006  269   17.77000     8.17000  
2006  270   22.63000     8.71000  
2006  271   28.38000    10.34000  
2006  272   28.37000     9.84000  
2006  273   28.90000    11.42000  
2006  274   30.59000    11.94000  
2006  275   27.10000    11.94000  
2006  276   14.10000     8.59000  
2006  277   18.83000     7.10000  
2006  278   19.74000     5.97000  
2006  279   20.68000     6.51000  
2006  280   17.04000     3.43000  
2006  281   20.34000     3.05000  
2006  282   16.75000     1.17000  
2006  283   18.47000     1.93000  
2006  284   20.59000     4.31000  
2006  285   22.34000     6.31000  
2006  286   19.53000     4.72000  
2006  287   22.09000     5.76000  
2006  288   19.27000     3.05000  
2006  289   19.01000     2.86000  
2006  290   16.75000     3.12000  
2006  291   19.82000     3.53000  
2006  292   23.06000     3.91000  
2006  293   21.51000     2.56000  
2006  294    6.93000    -0.67000  
2006  295    7.36000    -6.77000  
2006  296    9.92000    -5.41000  
2006  297   14.62000    -2.42000  
2006  298   13.78000    -1.76000  
2006  299   14.28000    -4.60000  
2006  300   12.24000    -4.36000  
2006  301   13.31000    -1.37000  
2006  302   13.20000    -2.66000  
2006  303   13.19000    -2.22000  
2006  304   14.03000    -2.00000  
2006  305   13.40000    -1.24000  
2006  306   14.21000    -0.29000  
2006  307   12.79000    -0.37000  
2006  308   12.43000     1.06000  
2006  309   13.75000    -0.35000  
2006  310   14.11000    -1.20000  
2006  311   11.56000    -0.89000  
2006  312   13.15000    -2.04000  
2006  313   11.06000    -1.56000  
2006  314    7.10000    -0.55000  
2006  315    7.67000    -2.78000  
2006  316    2.31000    -7.72000  
2006  317    4.33000    -7.23000  
2006  318    2.99000    -6.36000  
2006  319    4.71000    -6.02000  
2006  320    2.57000    -8.62000  
2006  321    1.72000   -11.72000  
2006  322    3.32000   -10.76000  
2006  323    6.56000   -10.90000  
2006  324    5.57000    -9.85000  
2006  325    4.95000    -9.05000  
2006  326    4.55000    -7.24000  
2006  327    3.93000    -9.24000  
2006  328    5.57000    -8.72000  
2006  329    2.71000    -9.38000  
2006  330    4.39000    -9.99000  
2006  331    4.50000    -8.96000  
2006  332    7.06000    -5.34000  
2006  333    7.95000    -5.37000  
2006  334    4.80000    -3.35000  
2006  335    7.66000    -3.46000  
2006  336    1.11000   -12.12000  
2006  337  -10.33000   -21.38000  
2006  338   -8.31000   -21.05000  
2006  339   -3.19000   -17.68000  
2006  340   -0.31000    -9.26000  
2006  341    2.03000    -5.74000  
2006  342    8.29000    -1.24000  
2006  343    6.91000    -9.34000  
2006  344    4.03000   -10.18000  
2006  345    3.84000    -7.33000  
2006  346   -0.23000   -10.83000  
2006  347    0.06000   -12.30000  
2006  348    1.79000   -12.06000  
2006  349    2.24000   -11.82000  
2006  350    0.86000   -13.66000  
2006  351    0.86000   -13.62000  
2006  352    2.36000   -10.24000  
2006  353   -1.93000   -10.37000  
2006  354   -4.58000   -19.13000  
2006  355  -14.21000   -21.24000  
2006  356  -10.17000   -20.68000  
2006  357   -3.20000   -17.53000  
2006  358   -5.46000   -17.36000  
2006  359   -7.91000   -16.67000  
2006  360   -5.71000   -13.15000  
2006  361  -11.22000   -20.24000  
2006  362  -10.44000   -21.69000  
2006  363  -10.35000   -23.19000  
2006  364  -11.43000   -23.05000  
2006  365  -11.23000   -23.43000  
2007    1   -8.75000   -24.48000  
2007    2   -6.24000   -22.78000  
2007    3   -6.83000   -21.48000  
2007    4   -5.94000   -19.56000  
2007    5   -3.50000   -18.28000  
2007    6   -1.95000   -13.13000  
2007    7   -2.04000   -13.99000  
2007    8   -3.21000   -16.15000  
2007    9   -5.62000   -15.78000  
2007   10   -4.91000   -16.40000  
2007   11   -5.61000   -17.06000  
2007   12   -6.47000   -18.16000  
2007   13   -5.10000   -19.63000  
2007   14   -5.96000   -19.47000  
2007   15   -8.20000   -19.38000  
2007   16   -5.78000   -17.77000  
2007   17   -8.08000   -18.00000  
2007   18   -8.57000   -18.25000  
2007   19   -8.07000   -16.60000  
2007   20  -13.09000   -26.47000  
2007   21  -13.55000   -32.50000  
2007   22  -18.89000   -32.39000  
2007   23  -19.25000   -29.98000  
2007   24  -19.32000   -29.93000  
2007   25  -18.50000   -27.37000  
2007   26  -13.53000   -27.38000  
2007   27  -11.92000   -26.49000  
2007   28  -12.45000   -25.74000  
2007   29  -10.70000   -24.83000  
2007   30  -13.51000   -25.40000  
2007   31  -12.88000   -26.48000  
2007   32  -10.47000   -26.35000  
2007   33   -6.12000   -22.97000  
2007   34  -11.44000   -22.07000  
2007   35   -9.05000   -24.15000  
2007   36  -10.63000   -24.04000  
2007   37  -12.50000   -25.40000  
2007   38   -8.73000   -25.00000  
2007   39   -5.79000   -24.54000  
2007   40   -3.76000   -20.24000  
2007   41  -10.59000   -23.49000  
2007   42   -9.74000   -23.50000  
2007   43   -8.28000   -21.19000  
2007   44   -3.45000   -19.10000  
2007   45   -7.43000   -19.01000  
2007   46   -6.43000   -18.65000  
2007   47   -3.29000   -17.01000  
2007   48    0.60000   -14.11000  
2007   49    4.16000   -13.01000  
2007   50    9.11000   -10.57000  
2007   51    4.92000    -7.34000  
2007   52   -0.28000   -10.48000  
2007   53   -2.12000    -9.89000  
2007   54   -2.92000    -8.17000  
2007   55   -0.51000   -16.31000  
2007   56   -0.32000   -15.55000  
2007   57    2.72000   -13.84000  
2007   58    6.02000    -7.01000  
2007   59    9.82000    -5.81000  
2007   60    6.88000    -8.05000  
2007   61    9.44000    -6.38000  
2007   62   11.66000    -5.21000  
2007   63   12.71000    -3.66000  
2007   64   11.00000    -2.52000  
2007   65    6.81000    -4.51000  
2007   66   11.39000    -4.58000  
2007   67   15.35000    -2.06000  
2007   68   16.65000    -0.53000  
2007   69   15.70000     3.41000  
2007   70    9.33000    -5.68000  
2007   71    5.02000    -6.23000  
2007   72   13.23000    -2.73000  
2007   73    9.16000    -4.29000  
2007   74   17.21000    -3.15000  
2007   75   20.03000     0.87000  
2007   76   18.02000    -0.24000  
2007   77    9.47000    -2.00000  
2007   78   11.51000    -1.46000  
2007   79    9.25000    -2.58000  
2007   80   12.33000    -3.59000  
2007   81   12.60000    -3.00000  
2007   82   16.96000    -0.99000  
2007   83   17.51000    -0.20000  
2007   84   19.48000     2.61000  
2007   85   13.28000    -2.77000  
2007   86    6.42000    -3.05000  
2007   87    8.81000    -2.42000  
2007   88    5.52000    -1.88000  
2007   89    6.27000    -3.69000  
2007   90    5.42000    -3.89000  
2007   91   10.39000    -4.62000  
2007   92   15.69000    -2.92000  
2007   93   16.58000    -1.60000  
2007   94   18.17000     0.08000  
2007   95   19.08000     1.12000  
2007   96   21.83000     3.33000  
2007   97   19.09000     5.67000  
2007   98   21.25000     6.61000  