171149tmp.tem: Temperature data - file written by SWAT+ editor 2025-11-04 13:23:50.770180
nbyr     tstep       lat       lon      elev
  14         0    42.531    97.031  1329.000
2005    1   -9.23000   -24.01000  
2005    2   -7.38000   -22.61000  
2005    3   -7.29000   -20.96000  
2005    4   -6.76000   -17.05000  
2005    5   -3.63000   -16.99000  
2005    6   -2.85000   -14.57000  
2005    7   -3.19000   -13.45000  
2005    8   -2.67000   -13.62000  
2005    9   -5.43000   -15.46000  
2005   10   -5.96000   -16.78000  
2005   11   -6.12000   -18.13000  
2005   12   -5.61000   -19.18000  
2005   13   -5.08000   -19.14000  
2005   14   -5.90000   -19.62000  
2005   15   -8.37000   -19.50000  
2005   16   -5.31000   -20.21000  
2005   17   -7.03000   -19.95000  
2005   18  -11.01000   -19.01000  
2005   19  -12.46000   -23.15000  
2005   20  -17.34000   -27.80000  
2005   21  -13.94000   -28.24000  
2005   22  -15.40000   -28.02000  
2005   23  -18.20000   -30.25000  
2005   24  -20.68000   -30.17000  
2005   25  -18.40000   -28.76000  
2005   26  -16.18000   -28.58000  
2005   27  -12.93000   -27.18000  
2005   28  -13.53000   -27.33000  
2005   29  -12.86000   -26.96000  
2005   30  -13.01000   -28.20000  
2005   31  -11.44000   -29.35000  
2005   32  -11.24000   -29.15000  
2005   33   -7.84000   -22.61000  
2005   34  -10.30000   -23.19000  
2005   35   -4.48000   -25.48000  
2005   36   -7.01000   -24.58000  
2005   37  -11.33000   -26.45000  
2005   38   -8.69000   -25.90000  
2005   39   -7.49000   -24.31000  
2005   40   -5.55000   -19.92000  
2005   41   -7.72000   -20.52000  
2005   42   -6.77000   -20.10000  
2005   43   -6.22000   -18.25000  
2005   44   -3.35000   -18.37000  
2005   45   -3.81000   -19.11000  
2005   46   -4.00000   -15.40000  
2005   47   -0.95000   -14.45000  
2005   48   -0.55000   -13.89000  
2005   49    3.19000   -12.96000  
2005   50    8.16000    -7.13000  
2005   51    5.29000    -7.71000  
2005   52    6.01000    -8.08000  
2005   53    1.46000    -8.03000  
2005   54   -0.04000    -7.02000  
2005   55   -0.37000   -14.20000  
2005   56    0.52000   -15.09000  
2005   57    4.40000   -15.27000  
2005   58    4.57000    -7.11000  
2005   59    9.21000    -5.42000  
2005   60    7.55000    -9.31000  
2005   61   11.17000    -9.04000  
2005   62   11.30000    -8.29000  
2005   63   11.72000    -7.19000  
2005   64    9.40000    -3.42000  
2005   65    7.31000    -4.49000  
2005   66   10.10000    -4.75000  
2005   67   12.94000    -3.96000  
2005   68   14.52000     0.09000  
2005   69   13.62000     1.11000  
2005   70    4.29000    -9.03000  
2005   71    4.89000    -8.60000  
2005   72   14.24000    -4.24000  
2005   73    7.65000    -6.45000  
2005   74   14.95000    -5.83000  
2005   75   18.41000     1.71000  
2005   76   15.63000     0.82000  
2005   77   10.05000    -1.39000  
2005   78    9.66000    -2.34000  
2005   79    5.94000    -4.45000  
2005   80    9.87000    -6.81000  
2005   81   12.71000    -6.55000  
2005   82   15.30000    -5.09000  
2005   83   17.24000    -1.27000  
2005   84   17.95000    -0.29000  
2005   85    9.30000    -7.15000  
2005   86    3.30000    -7.26000  
2005   87    6.88000    -4.74000  
2005   88    1.02000    -4.39000  
2005   89   -0.05000    -6.82000  
2005   90    4.48000    -5.90000  
2005   91    8.81000    -7.89000  
2005   92   13.61000    -6.72000  
2005   93   14.31000    -4.84000  
2005   94   13.58000    -4.00000  
2005   95   14.67000    -1.94000  
2005   96   18.00000    -0.90000  
2005   97   15.92000     2.99000  
2005   98   15.99000     2.23000  
2005   99   10.38000    -0.72000  
2005  100    9.84000    -0.94000  
2005  101   11.86000    -0.56000  
2005  102   15.61000    -0.59000  
2005  103   17.86000     0.41000  
2005  104   20.76000     2.29000  
2005  105   22.98000     5.27000  
2005  106   21.63000     7.94000  
2005  107   24.80000     9.57000  
2005  108   16.13000    -3.39000  
2005  109    3.86000    -5.95000  
2005  110    3.38000    -5.06000  
2005  111    7.15000    -4.36000  
2005  112   12.55000    -3.61000  
2005  113   18.76000    -0.96000  
2005  114   22.36000     3.90000  
2005  115   22.17000     8.22000  
2005  116   22.77000     9.43000  
2005  117   26.73000    12.22000  
2005  118   25.41000     6.82000  
2005  119   15.21000     3.87000  
2005  120   22.68000     5.38000  
2005  121   12.03000     2.37000  
2005  122    5.31000    -2.07000  
2005  123   15.94000     1.24000  
2005  124   23.02000     4.51000  
2005  125   25.14000    10.12000  
2005  126   19.16000     7.34000  
2005  127   18.05000     6.17000  
2005  128   14.03000     2.41000  
2005  129   19.93000     3.74000  
2005  130   24.09000     5.80000  
2005  131   24.70000     7.64000  
2005  132   26.82000    10.10000  
2005  133   30.15000    13.94000  
2005  134   30.94000    14.87000  
2005  135   30.31000    16.53000  
2005  136   26.98000    12.75000  
2005  137   25.75000    11.05000  
2005  138   24.87000    10.88000  
2005  139   25.13000    10.01000  
2005  140   26.10000    13.81000  
2005  141   25.86000    12.91000  
2005  142   27.38000    14.00000  
2005  143   29.43000    14.68000  
2005  144   30.92000    16.89000  
2005  145   26.25000    10.49000  
2005  146   22.37000     9.01000  
2005  147   27.59000    13.30000  
2005  148   23.92000    10.21000  
2005  149   26.41000    10.33000  
2005  150   29.68000    15.39000  
2005  151   29.92000    15.63000  
2005  152   30.20000    15.80000  
2005  153   31.68000    16.67000  
2005  154   33.72000    17.90000  
2005  155   27.78000    17.06000  
2005  156   25.95000    12.98000  
2005  157   29.11000    16.16000  
2005  158   32.46000    17.27000  
2005  159   34.20000    18.15000  
2005  160   34.22000    20.96000  
2005  161   32.71000    18.39000  
2005  162   34.19000    15.23000  
2005  163   24.97000    12.20000  
2005  164   23.05000    10.65000  
2005  165   26.77000    12.26000  
2005  166   28.60000    11.90000  
2005  167   28.49000    15.62000  
2005  168   30.58000    15.87000  
2005  169   24.48000    14.42000  
2005  170   24.44000    10.99000  
2005  171   28.41000    14.42000  
2005  172   21.97000    12.18000  
2005  173   26.54000    13.30000  
2005  174   29.93000    16.94000  
2005  175   31.43000    19.53000  
2005  176   32.00000    19.93000  
2005  177   31.82000    18.60000  
2005  178   27.61000    18.15000  
2005  179   27.82000    16.37000  
2005  180   31.23000    16.90000  
2005  181   33.75000    19.14000  
2005  182   34.78000    21.12000  
2005  183   29.92000    18.97000  
2005  184   27.80000    15.96000  
2005  185   33.11000    18.23000  
2005  186   32.72000    21.23000  
2005  187   30.63000    17.52000  
2005  188   31.60000    19.55000  
2005  189   27.59000    16.40000  
2005  190   25.97000    16.24000  
2005  191   27.26000    13.52000  
2005  192   29.67000    16.59000  
2005  193   29.29000    17.08000  
2005  194   31.06000    17.71000  
2005  195   32.90000    17.70000  
2005  196   34.77000    20.44000  
2005  197   24.05000    15.07000  
2005  198   25.89000    16.86000  
2005  199   26.99000    15.81000  
2005  200   31.63000    18.74000  
2005  201   32.22000    21.06000  
2005  202   29.84000    17.26000  
2005  203   31.58000    20.07000  
2005  204   29.33000    19.53000  
2005  205   32.56000    21.17000  
2005  206   28.84000    17.38000  
2005  207   28.63000    15.94000  
2005  208   28.35000    15.81000  
2005  209   29.30000    17.76000  
2005  210   24.85000    17.96000  
2005  211   29.43000    18.61000  
2005  212   31.10000    18.23000  
2005  213   34.19000    18.06000  
2005  214   36.45000    21.29000  
2005  215   36.75000    22.13000  
2005  216   37.56000    21.92000  
2005  217   34.26000    15.81000  
2005  218   24.10000    15.62000  
2005  219   27.26000    15.20000  
2005  220   30.67000    14.33000  
2005  221   29.67000    15.54000  
2005  222   30.41000    15.93000  
2005  223   31.75000    15.52000  
2005  224   31.53000    15.90000  
2005  225   32.29000    16.67000  
2005  226   31.48000    19.07000  
2005  227   28.79000    14.25000  
2005  228   31.16000    16.73000  
2005  229   30.42000    17.47000  
2005  230   30.23000    18.98000  
2005  231   23.75000    10.72000  
2005  232   16.57000     9.77000  
2005  233   26.34000    12.01000  
2005  234   27.93000    15.08000  
2005  235   28.89000    14.84000  
2005  236   28.60000    13.11000  
2005  237   24.53000     9.84000  
2005  238   27.96000    11.66000  
2005  239   27.88000    11.73000  
2005  240   12.25000     7.56000  
2005  241   20.09000     4.55000  
2005  242   26.27000     6.83000  
2005  243   28.04000    11.21000  
2005  244   25.47000    12.08000  
2005  245   25.67000    11.41000  
2005  246   24.97000    11.11000  
2005  247   24.88000    12.43000  
2005  248   25.51000    12.64000  
2005  249   27.10000    12.78000  
2005  250   20.26000     6.15000  
2005  251   18.71000     4.70000  
2005  252   20.24000     5.55000  
2005  253   25.23000     8.48000  
2005  254   27.98000     9.06000  
2005  255   27.72000    10.24000  
2005  256   27.31000    11.57000  
2005  257   27.04000     9.78000  
2005  258   26.62000    10.65000  
2005  259   28.28000     9.18000  
2005  260   27.06000    10.37000  
2005  261   29.52000    12.35000  
2005  262   27.44000    13.31000  
2005  263   24.76000     8.16000  
2005  264   18.04000     8.01000  
2005  265   20.29000     7.86000  
2005  266   16.32000     4.78000  
2005  267   14.67000     4.20000  
2005  268   17.60000     4.91000  
2005  269   17.50000     6.88000  
2005  270   23.34000     7.48000  
2005  271   26.70000     8.34000  
2005  272   27.01000     8.17000  
2005  273   27.03000     8.92000  
2005  274   27.73000    10.52000  
2005  275   23.75000    11.10000  
2005  276   18.62000     8.21000  
2005  277   18.87000     6.74000  
2005  278   19.15000     6.56000  
2005  279   18.30000     6.90000  
2005  280   15.69000     0.94000  
2005  281   17.13000     1.29000  
2005  282   16.42000    -0.03000  
2005  283   17.54000     0.18000  
2005  284   19.59000     2.47000  
2005  285   20.07000     3.86000  
2005  286   16.84000     3.25000  
2005  287   19.87000     3.04000  
2005  288   16.11000     3.79000  
2005  289   16.32000     2.96000  
2005  290   15.18000     2.30000  
2005  291   18.90000     2.99000  
2005  292   20.02000     0.99000  
2005  293   19.45000    -1.37000  
2005  294    3.91000    -4.12000  
2005  295    5.55000    -7.66000  
2005  296    8.70000    -7.42000  
2005  297   12.47000    -3.29000  
2005  298   11.77000    -4.52000  
2005  299   13.26000    -5.16000  
2005  300   11.58000    -5.15000  
2005  301   10.54000    -3.06000  
2005  302   10.86000    -3.49000  
2005  303   11.43000    -3.07000  
2005  304   11.74000    -3.93000  
2005  305   12.70000    -2.95000  
2005  306   12.84000    -2.42000  
2005  307   10.68000    -2.28000  
2005  308   10.40000    -1.95000  
2005  309   11.62000    -1.21000  
2005  310   12.24000    -1.67000  
2005  311   10.60000    -1.23000  
2005  312   12.96000    -1.79000  
2005  313   10.41000    -1.56000  
2005  314    5.69000    -2.91000  
2005  315    2.52000    -6.96000  
2005  316    0.19000    -9.84000  
2005  317    3.09000    -9.31000  
2005  318   -0.23000    -8.90000  
2005  319    2.19000    -7.60000  
2005  320   -1.14000   -11.98000  
2005  321   -0.90000   -16.94000  
2005  322    1.42000   -16.61000  
2005  323    2.79000   -15.05000  
2005  324    3.88000   -14.51000  
2005  325    2.68000   -11.05000  
2005  326    2.64000    -9.42000  
2005  327    1.25000   -11.65000  
2005  328    5.28000   -11.24000  
2005  329    1.43000   -10.00000  
2005  330    5.03000   -10.48000  
2005  331    3.47000   -10.54000  
2005  332    5.61000    -6.43000  
2005  333    6.41000    -5.60000  
2005  334    2.84000    -5.74000  
2005  335    5.77000    -6.79000  
2005  336   -3.10000   -15.17000  
2005  337  -11.49000   -22.96000  
2005  338   -6.90000   -22.56000  
2005  339   -3.51000   -17.97000  
2005  340   -1.87000   -10.67000  
2005  341    0.45000    -8.62000  
2005  342    6.69000    -4.37000  
2005  343    4.77000   -10.91000  
2005  344    4.68000   -11.72000  
2005  345    3.21000    -8.23000  
2005  346   -1.97000   -11.97000  
2005  347   -0.61000   -13.71000  
2005  348    1.52000   -13.69000  
2005  349    1.76000   -10.77000  
2005  350    0.07000   -13.85000  
2005  351    1.78000   -14.02000  
2005  352    1.38000    -9.53000  
2005  353   -2.95000   -12.32000  
2005  354   -4.34000   -18.82000  
2005  355  -14.19000   -19.69000  
2005  356   -8.61000   -18.89000  
2005  357   -3.17000   -16.15000  
2005  358   -4.70000   -16.33000  
2005  359   -6.37000   -16.04000  
2005  360   -5.35000   -14.73000  
2005  361  -14.53000   -22.31000  
2005  362  -11.15000   -25.18000  
2005  363   -9.68000   -24.82000  
2005  364   -8.21000   -24.06000  
2005  365   -8.97000   -22.19000  
2006    1   -9.23000   -24.01000  
2006    2   -7.38000   -22.61000  
2006    3   -7.29000   -20.96000  
2006    4   -6.76000   -17.05000  
2006    5   -3.63000   -16.99000  
2006    6   -2.85000   -14.57000  
2006    7   -3.19000   -13.45000  
2006    8   -2.67000   -13.62000  
2006    9   -5.43000   -15.46000  
2006   10   -5.96000   -16.78000  
2006   11   -6.12000   -18.13000  
2006   12   -5.61000   -19.18000  
2006   13   -5.08000   -19.14000  
2006   14   -5.90000   -19.62000  
2006   15   -8.37000   -19.50000  
2006   16   -5.31000   -20.21000  
2006   17   -7.03000   -19.95000  
2006   18  -11.01000   -19.01000  
2006   19  -12.46000   -23.15000  
2006   20  -17.34000   -27.80000  
2006   21  -13.94000   -28.24000  
2006   22  -15.40000   -28.02000  
2006   23  -18.20000   -30.25000  
2006   24  -20.68000   -30.17000  
2006   25  -18.40000   -28.76000  
2006   26  -16.18000   -28.58000  
2006   27  -12.93000   -27.18000  
2006   28  -13.53000   -27.33000  
2006   29  -12.86000   -26.96000  
2006   30  -13.01000   -28.20000  
2006   31  -11.44000   -29.35000  
2006   32  -11.24000   -29.15000  
2006   33   -7.84000   -22.61000  
2006   34  -10.30000   -23.19000  
2006   35   -4.48000   -25.48000  
2006   36   -7.01000   -24.58000  
2006   37  -11.33000   -26.45000  
2006   38   -8.69000   -25.90000  
2006   39   -7.49000   -24.31000  
2006   40   -5.55000   -19.92000  
2006   41   -7.72000   -20.52000  
2006   42   -6.77000   -20.10000  
2006   43   -6.22000   -18.25000  
2006   44   -3.35000   -18.37000  
2006   45   -3.81000   -19.11000  
2006   46   -4.00000   -15.40000  
2006   47   -0.95000   -14.45000  
2006   48   -0.55000   -13.89000  
2006   49    3.19000   -12.96000  
2006   50    8.16000    -7.13000  
2006   51    5.29000    -7.71000  
2006   52    6.01000    -8.08000  
2006   53    1.46000    -8.03000  
2006   54   -0.04000    -7.02000  
2006   55   -0.37000   -14.20000  
2006   56    0.52000   -15.09000  
2006   57    4.40000   -15.27000  
2006   58    4.57000    -7.11000  
2006   59    9.21000    -5.42000  
2006   60    7.55000    -9.31000  
2006   61   11.17000    -9.04000  
2006   62   11.30000    -8.29000  
2006   63   11.72000    -7.19000  
2006   64    9.40000    -3.42000  
2006   65    7.31000    -4.49000  
2006   66   10.10000    -4.75000  
2006   67   12.94000    -3.96000  
2006   68   14.52000     0.09000  
2006   69   13.62000     1.11000  
2006   70    4.29000    -9.03000  
2006   71    4.89000    -8.60000  
2006   72   14.24000    -4.24000  
2006   73    7.65000    -6.45000  
2006   74   14.95000    -5.83000  
2006   75   18.41000     1.71000  
2006   76   15.63000     0.82000  
2006   77   10.05000    -1.39000  
2006   78    9.66000    -2.34000  
2006   79    5.94000    -4.45000  
2006   80    9.87000    -6.81000  
2006   81   12.71000    -6.55000  
2006   82   15.30000    -5.09000  
2006   83   17.24000    -1.27000  
2006   84   17.95000    -0.29000  
2006   85    9.30000    -7.15000  
2006   86    3.30000    -7.26000  
2006   87    6.88000    -4.74000  
2006   88    1.02000    -4.39000  
2006   89   -0.05000    -6.82000  
2006   90    4.48000    -5.90000  
2006   91    8.81000    -7.89000  
2006   92   13.61000    -6.72000  
2006   93   14.31000    -4.84000  
2006   94   13.58000    -4.00000  
2006   95   14.67000    -1.94000  
2006   96   18.00000    -0.90000  
2006   97   15.92000     2.99000  
2006   98   15.99000     2.23000  
2006   99   10.38000    -0.72000  
2006  100    9.84000    -0.94000  
2006  101   11.86000    -0.56000  
2006  102   15.61000    -0.59000  
2006  103   17.86000     0.41000  
2006  104   20.76000     2.29000  
2006  105   22.98000     5.27000  
2006  106   21.63000     7.94000  
2006  107   24.80000     9.57000  
2006  108   16.13000    -3.39000  
2006  109    3.86000    -5.95000  
2006  110    3.38000    -5.06000  
2006  111    7.15000    -4.36000  
2006  112   12.55000    -3.61000  
2006  113   18.76000    -0.96000  
2006  114   22.36000     3.90000  
2006  115   22.17000     8.22000  
2006  116   22.77000     9.43000  
2006  117   26.73000    12.22000  
2006  118   25.41000     6.82000  
2006  119   15.21000     3.87000  
2006  120   22.68000     5.38000  
2006  121   12.03000     2.37000  
2006  122    5.31000    -2.07000  
2006  123   15.94000     1.24000  
2006  124   23.02000     4.51000  
2006  125   25.14000    10.12000  
2006  126   19.16000     7.34000  
2006  127   18.05000     6.17000  
2006  128   14.03000     2.41000  
2006  129   19.93000     3.74000  
2006  130   24.09000     5.80000  
2006  131   24.70000     7.64000  
2006  132   26.82000    10.10000  
2006  133   30.15000    13.94000  
2006  134   30.94000    14.87000  
2006  135   30.31000    16.53000  
2006  136   26.98000    12.75000  
2006  137   25.75000    11.05000  
2006  138   24.87000    10.88000  
2006  139   25.13000    10.01000  
2006  140   26.10000    13.81000  
2006  141   25.86000    12.91000  
2006  142   27.38000    14.00000  
2006  143   29.43000    14.68000  
2006  144   30.92000    16.89000  
2006  145   26.25000    10.49000  
2006  146   22.37000     9.01000  
2006  147   27.59000    13.30000  
2006  148   23.92000    10.21000  
2006  149   26.41000    10.33000  
2006  150   29.68000    15.39000  
2006  151   29.92000    15.63000  
2006  152   30.20000    15.80000  
2006  153   31.68000    16.67000  
2006  154   33.72000    17.90000  
2006  155   27.78000    17.06000  
2006  156   25.95000    12.98000  
2006  157   29.11000    16.16000  
2006  158   32.46000    17.27000  
2006  159   34.20000    18.15000  
2006  160   34.22000    20.96000  
2006  161   32.71000    18.39000  
2006  162   34.19000    15.23000  
2006  163   24.97000    12.20000  
2006  164   23.05000    10.65000  
2006  165   26.77000    12.26000  
2006  166   28.60000    11.90000  
2006  167   28.49000    15.62000  
2006  168   30.58000    15.87000  
2006  169   24.48000    14.42000  
2006  170   24.44000    10.99000  
2006  171   28.41000    14.42000  
2006  172   21.97000    12.18000  
2006  173   26.54000    13.30000  
2006  174   29.93000    16.94000  
2006  175   31.43000    19.53000  
2006  176   32.00000    19.93000  
2006  177   31.82000    18.60000  
2006  178   27.61000    18.15000  
2006  179   27.82000    16.37000  
2006  180   31.23000    16.90000  
2006  181   33.75000    19.14000  
2006  182   34.78000    21.12000  
2006  183   29.92000    18.97000  
2006  184   27.80000    15.96000  
2006  185   33.11000    18.23000  
2006  186   32.72000    21.23000  
2006  187   30.63000    17.52000  
2006  188   31.60000    19.55000  
2006  189   27.59000    16.40000  
2006  190   25.97000    16.24000  
2006  191   27.26000    13.52000  
2006  192   29.67000    16.59000  
2006  193   29.29000    17.08000  
2006  194   31.06000    17.71000  
2006  195   32.90000    17.70000  
2006  196   34.77000    20.44000  
2006  197   24.05000    15.07000  
2006  198   25.89000    16.86000  
2006  199   26.99000    15.81000  
2006  200   31.63000    18.74000  
2006  201   32.22000    21.06000  
2006  202   29.84000    17.26000  
2006  203   31.58000    20.07000  
2006  204   29.33000    19.53000  
2006  205   32.56000    21.17000  
2006  206   28.84000    17.38000  
2006  207   28.63000    15.94000  
2006  208   28.35000    15.81000  
2006  209   29.30000    17.76000  
2006  210   24.85000    17.96000  
2006  211   29.43000    18.61000  
2006  212   31.10000    18.23000  
2006  213   34.19000    18.06000  
2006  214   36.45000    21.29000  
2006  215   36.75000    22.13000  
2006  216   37.56000    21.92000  
2006  217   34.26000    15.81000  
2006  218   24.10000    15.62000  
2006  219   27.26000    15.20000  
2006  220   30.67000    14.33000  
2006  221   29.67000    15.54000  
2006  222   30.41000    15.93000  
2006  223   31.75000    15.52000  
2006  224   31.53000    15.90000  
2006  225   32.29000    16.67000  
2006  226   31.48000    19.07000  
2006  227   28.79000    14.25000  
2006  228   31.16000    16.73000  
2006  229   30.42000    17.47000  
2006  230   30.23000    18.98000  
2006  231   23.75000    10.72000  
2006  232   16.57000     9.77000  
2006  233   26.34000    12.01000  
2006  234   27.93000    15.08000  
2006  235   28.89000    14.84000  
2006  236   28.60000    13.11000  
2006  237   24.53000     9.84000  
2006  238   27.96000    11.66000  
2006  239   27.88000    11.73000  
2006  240   12.25000     7.56000  
2006  241   20.09000     4.55000  
2006  242   26.27000     6.83000  
2006  243   28.04000    11.21000  
2006  244   25.47000    12.08000  
2006  245   25.67000    11.41000  
2006  246   24.97000    11.11000  
2006  247   24.88000    12.43000  
2006  248   25.51000    12.64000  
2006  249   27.10000    12.78000  
2006  250   20.26000     6.15000  
2006  251   18.71000     4.70000  
2006  252   20.24000     5.55000  
2006  253   25.23000     8.48000  
2006  254   27.98000     9.06000  
2006  255   27.72000    10.24000  
2006  256   27.31000    11.57000  
2006  257   27.04000     9.78000  
2006  258   26.62000    10.65000  
2006  259   28.28000     9.18000  
2006  260   27.06000    10.37000  
2006  261   29.52000    12.35000  
2006  262   27.44000    13.31000  
2006  263   24.76000     8.16000  
2006  264   18.04000     8.01000  
2006  265   20.29000     7.86000  
2006  266   16.32000     4.78000  
2006  267   14.67000     4.20000  
2006  268   17.60000     4.91000  
2006  269   17.50000     6.88000  
2006  270   23.34000     7.48000  
2006  271   26.70000     8.34000  
2006  272   27.01000     8.17000  
2006  273   27.03000     8.92000  
2006  274   27.73000    10.52000  
2006  275   23.75000    11.10000  
2006  276   18.62000     8.21000  
2006  277   18.87000     6.74000  
2006  278   19.15000     6.56000  
2006  279   18.30000     6.90000  
2006  280   15.69000     0.94000  
2006  281   17.13000     1.29000  
2006  282   16.42000    -0.03000  
2006  283   17.54000     0.18000  
2006  284   19.59000     2.47000  
2006  285   20.07000     3.86000  
2006  286   16.84000     3.25000  
2006  287   19.87000     3.04000  
2006  288   16.11000     3.79000  
2006  289   16.32000     2.96000  
2006  290   15.18000     2.30000  
2006  291   18.90000     2.99000  
2006  292   20.02000     0.99000  
2006  293   19.45000    -1.37000  
2006  294    3.91000    -4.12000  
2006  295    5.55000    -7.66000  
2006  296    8.70000    -7.42000  
2006  297   12.47000    -3.29000  
2006  298   11.77000    -4.52000  
2006  299   13.26000    -5.16000  
2006  300   11.58000    -5.15000  
2006  301   10.54000    -3.06000  
2006  302   10.86000    -3.49000  
2006  303   11.43000    -3.07000  
2006  304   11.74000    -3.93000  
2006  305   12.70000    -2.95000  
2006  306   12.84000    -2.42000  
2006  307   10.68000    -2.28000  
2006  308   10.40000    -1.95000  
2006  309   11.62000    -1.21000  
2006  310   12.24000    -1.67000  
2006  311   10.60000    -1.23000  
2006  312   12.96000    -1.79000  
2006  313   10.41000    -1.56000  
2006  314    5.69000    -2.91000  
2006  315    2.52000    -6.96000  
2006  316    0.19000    -9.84000  
2006  317    3.09000    -9.31000  
2006  318   -0.23000    -8.90000  
2006  319    2.19000    -7.60000  
2006  320   -1.14000   -11.98000  
2006  321   -0.90000   -16.94000  
2006  322    1.42000   -16.61000  
2006  323    2.79000   -15.05000  
2006  324    3.88000   -14.51000  
2006  325    2.68000   -11.05000  
2006  326    2.64000    -9.42000  
2006  327    1.25000   -11.65000  
2006  328    5.28000   -11.24000  
2006  329    1.43000   -10.00000  
2006  330    5.03000   -10.48000  
2006  331    3.47000   -10.54000  
2006  332    5.61000    -6.43000  
2006  333    6.41000    -5.60000  
2006  334    2.84000    -5.74000  
2006  335    5.77000    -6.79000  
2006  336   -3.10000   -15.17000  
2006  337  -11.49000   -22.96000  
2006  338   -6.90000   -22.56000  
2006  339   -3.51000   -17.97000  
2006  340   -1.87000   -10.67000  
2006  341    0.45000    -8.62000  
2006  342    6.69000    -4.37000  
2006  343    4.77000   -10.91000  
2006  344    4.68000   -11.72000  
2006  345    3.21000    -8.23000  
2006  346   -1.97000   -11.97000  
2006  347   -0.61000   -13.71000  
2006  348    1.52000   -13.69000  
2006  349    1.76000   -10.77000  
2006  350    0.07000   -13.85000  
2006  351    1.78000   -14.02000  
2006  352    1.38000    -9.53000  
2006  353   -2.95000   -12.32000  
2006  354   -4.34000   -18.82000  
2006  355  -14.19000   -19.69000  
2006  356   -8.61000   -18.89000  
2006  357   -3.17000   -16.15000  
2006  358   -4.70000   -16.33000  
2006  359   -6.37000   -16.04000  
2006  360   -5.35000   -14.73000  
2006  361  -14.53000   -22.31000  
2006  362  -11.15000   -25.18000  
2006  363   -9.68000   -24.82000  
2006  364   -8.21000   -24.06000  
2006  365   -8.97000   -22.19000  
2007    1   -9.23000   -24.01000  
2007    2   -7.38000   -22.61000  
2007    3   -7.29000   -20.96000  
2007    4   -6.76000   -17.05000  
2007    5   -3.63000   -16.99000  
2007    6   -2.85000   -14.57000  
2007    7   -3.19000   -13.45000  
2007    8   -2.67000   -13.62000  
2007    9   -5.43000   -15.46000  
2007   10   -5.96000   -16.78000  
2007   11   -6.12000   -18.13000  
2007   12   -5.61000   -19.18000  
2007   13   -5.08000   -19.14000  
2007   14   -5.90000   -19.62000  
2007   15   -8.37000   -19.50000  
2007   16   -5.31000   -20.21000  
2007   17   -7.03000   -19.95000  
2007   18  -11.01000   -19.01000  
2007   19  -12.46000   -23.15000  
2007   20  -17.34000   -27.80000  
2007   21  -13.94000   -28.24000  
2007   22  -15.40000   -28.02000  
2007   23  -18.20000   -30.25000  
2007   24  -20.68000   -30.17000  
2007   25  -18.40000   -28.76000  
2007   26  -16.18000   -28.58000  
2007   27  -12.93000   -27.18000  
2007   28  -13.53000   -27.33000  
2007   29  -12.86000   -26.96000  
2007   30  -13.01000   -28.20000  
2007   31  -11.44000   -29.35000  
2007   32  -11.24000   -29.15000  
2007   33   -7.84000   -22.61000  
2007   34  -10.30000   -23.19000  
2007   35   -4.48000   -25.48000  
2007   36   -7.01000   -24.58000  
2007   37  -11.33000   -26.45000  
2007   38   -8.69000   -25.90000  
2007   39   -7.49000   -24.31000  
2007   40   -5.55000   -19.92000  
2007   41   -7.72000   -20.52000  
2007   42   -6.77000   -20.10000  
2007   43   -6.22000   -18.25000  
2007   44   -3.35000   -18.37000  
2007   45   -3.81000   -19.11000  
2007   46   -4.00000   -15.40000  
2007   47   -0.95000   -14.45000  
2007   48   -0.55000   -13.89000  
2007   49    3.19000   -12.96000  
2007   50    8.16000    -7.13000  
2007   51    5.29000    -7.71000  
2007   52    6.01000    -8.08000  
2007   53    1.46000    -8.03000  
2007   54   -0.04000    -7.02000  
2007   55   -0.37000   -14.20000  
2007   56    0.52000   -15.09000  
2007   57    4.40000   -15.27000  
2007   58    4.57000    -7.11000  
2007   59    9.21000    -5.42000  
2007   60    7.55000    -9.31000  
2007   61   11.17000    -9.04000  
2007   62   11.30000    -8.29000  
2007   63   11.72000    -7.19000  
2007   64    9.40000    -3.42000  
2007   65    7.31000    -4.49000  
2007   66   10.10000    -4.75000  
2007   67   12.94000    -3.96000  
2007   68   14.52000     0.09000  
2007   69   13.62000     1.11000  
2007   70    4.29000    -9.03000  
2007   71    4.89000    -8.60000  
2007   72   14.24000    -4.24000  
2007   73    7.65000    -6.45000  
2007   74   14.95000    -5.83000  
2007   75   18.41000     1.71000  
2007   76   15.63000     0.82000  
2007   77   10.05000    -1.39000  
2007   78    9.66000    -2.34000  
2007   79    5.94000    -4.45000  
2007   80    9.87000    -6.81000  
2007   81   12.71000    -6.55000  
2007   82   15.30000    -5.09000  
2007   83   17.24000    -1.27000  
2007   84   17.95000    -0.29000  
2007   85    9.30000    -7.15000  
2007   86    3.30000    -7.26000  
2007   87    6.88000    -4.74000  
2007   88    1.02000    -4.39000  
2007   89   -0.05000    -6.82000  
2007   90    4.48000    -5.90000  
2007   91    8.81000    -7.89000  
2007   92   13.61000    -6.72000  
2007   93   14.31000    -4.84000  
2007   94   13.58000    -4.00000  
2007   95   14.67000    -1.94000  
2007   96   18.00000    -0.90000  
2007   97   15.92000     2.99000  
2007   98   15.99000     2.23000  