173167tmp.tem: Temperature data - file written by SWAT+ editor 2025-11-04 13:23:50.877923
nbyr     tstep       lat       lon      elev
  14         0    43.031   101.531  1615.000
2005    1  -11.11000   -24.41000  
2005    2  -10.34000   -24.97000  
2005    3  -10.85000   -23.70000  
2005    4   -8.28000   -21.58000  
2005    5   -6.42000   -19.56000  
2005    6   -7.63000   -17.03000  
2005    7   -6.69000   -17.44000  
2005    8   -7.45000   -21.54000  
2005    9   -9.43000   -20.04000  
2005   10   -8.19000   -23.49000  
2005   11   -8.80000   -22.62000  
2005   12   -9.78000   -21.51000  
2005   13  -10.26000   -25.26000  
2005   14  -12.00000   -24.52000  
2005   15  -12.76000   -23.73000  
2005   16  -12.17000   -21.68000  
2005   17  -10.99000   -21.81000  
2005   18  -10.01000   -21.43000  
2005   19   -8.59000   -16.10000  
2005   20  -14.15000   -24.71000  
2005   21  -16.78000   -33.20000  
2005   22  -18.84000   -32.42000  
2005   23  -18.52000   -31.59000  
2005   24  -19.07000   -30.85000  
2005   25  -18.14000   -30.39000  
2005   26  -17.51000   -29.99000  
2005   27  -20.04000   -32.77000  
2005   28  -19.18000   -32.17000  
2005   29  -17.53000   -30.01000  
2005   30  -19.08000   -31.35000  
2005   31  -19.52000   -31.92000  
2005   32  -18.95000   -31.41000  
2005   33  -16.20000   -28.13000  
2005   34  -17.54000   -27.48000  
2005   35  -14.87000   -27.35000  
2005   36  -14.06000   -26.06000  
2005   37  -15.04000   -29.90000  
2005   38  -13.66000   -28.39000  
2005   39  -12.57000   -24.06000  
2005   40  -11.00000   -25.50000  
2005   41  -13.46000   -26.84000  
2005   42  -13.92000   -28.38000  
2005   43  -12.80000   -26.63000  
2005   44  -10.23000   -20.79000  
2005   45   -8.75000   -23.07000  
2005   46  -10.37000   -22.50000  
2005   47   -5.39000   -19.39000  
2005   48   -4.82000   -15.58000  
2005   49   -2.18000   -15.64000  
2005   50    0.60000   -14.40000  
2005   51    0.30000   -13.41000  
2005   52   -4.77000   -16.09000  
2005   53   -1.17000   -14.29000  
2005   54   -4.00000   -12.53000  
2005   55   -2.92000   -19.27000  
2005   56   -3.81000   -18.19000  
2005   57   -0.91000   -15.02000  
2005   58    2.28000   -12.25000  
2005   59    3.65000   -12.37000  
2005   60    0.77000   -12.40000  
2005   61    6.29000    -9.37000  
2005   62    8.89000    -7.14000  
2005   63    9.00000    -5.83000  
2005   64    4.82000    -6.53000  
2005   65    3.80000    -7.71000  
2005   66    6.86000    -7.03000  
2005   67    9.94000    -5.17000  
2005   68   12.14000    -2.02000  
2005   69   11.74000    -0.80000  
2005   70    7.14000    -9.21000  
2005   71    0.32000    -9.66000  
2005   72    8.27000    -5.62000  
2005   73    5.12000    -8.26000  
2005   74   10.27000    -6.44000  
2005   75   13.20000    -0.95000  
2005   76   12.01000    -6.90000  
2005   77    4.47000    -7.44000  
2005   78    8.77000    -4.50000  
2005   79    5.83000    -7.17000  
2005   80    6.87000    -8.04000  
2005   81    6.37000    -7.27000  
2005   82   11.72000    -3.19000  
2005   83   11.98000    -2.32000  
2005   84   14.35000    -0.05000  
2005   85   11.37000    -3.62000  
2005   86    4.43000    -7.08000  
2005   87    2.36000    -8.30000  
2005   88    2.99000    -7.19000  
2005   89    1.59000    -5.42000  
2005   90   -1.34000   -10.31000  
2005   91    4.18000    -9.08000  
2005   92    8.39000    -5.97000  
2005   93   11.08000    -2.45000  
2005   94   13.27000    -0.67000  
2005   95   13.29000    -2.59000  
2005   96   15.31000     0.56000  
2005   97   15.19000     3.42000  
2005   98   15.86000     2.26000  
2005   99    6.87000    -4.09000  
2005  100    9.13000    -2.84000  
2005  101   11.33000    -1.73000  
2005  102   13.02000    -0.68000  
2005  103   16.81000     0.23000  
2005  104   17.53000     3.70000  
2005  105   20.91000     7.15000  
2005  106   22.96000     6.01000  
2005  107   24.45000     8.44000  
2005  108   18.94000     2.09000  
2005  109   12.86000    -1.87000  
2005  110    4.83000    -2.41000  
2005  111    6.64000    -4.95000  
2005  112    9.92000    -2.93000  
2005  113   16.05000    -0.74000  
2005  114   19.10000     2.73000  
2005  115   21.32000     6.26000  
2005  116   20.98000     7.07000  
2005  117   24.56000    11.13000  
2005  118   24.68000     8.29000  
2005  119   13.38000     4.75000  
2005  120   19.30000     7.37000  
2005  121   12.88000    -0.03000  
2005  122    7.43000    -1.65000  
2005  123   11.94000    -1.16000  
2005  124   17.26000     3.15000  
2005  125   23.68000    10.84000  
2005  126   19.47000     4.51000  
2005  127   16.68000     6.20000  
2005  128    9.67000    -0.18000  
2005  129   12.50000     1.45000  
2005  130   15.10000     0.59000  
2005  131   15.75000     2.37000  
2005  132   20.75000     6.66000  
2005  133   26.40000    11.68000  
2005  134   27.27000    10.78000  
2005  135   26.12000    12.09000  
2005  136   19.69000     7.57000  
2005  137   20.57000     7.16000  
2005  138   21.71000     8.47000  
2005  139   22.91000     4.87000  
2005  140   21.06000     8.85000  
2005  141   23.32000    10.69000  
2005  142   26.50000    10.28000  
2005  143   26.67000    11.72000  
2005  144   29.43000    15.47000  
2005  145   29.94000    12.06000  
2005  146   19.94000     6.56000  
2005  147   26.31000    10.46000  
2005  148   18.88000     2.57000  
2005  149   19.18000     5.31000  
2005  150   26.95000    11.99000  
2005  151   24.01000    10.62000  
2005  152   24.99000    10.46000  
2005  153   23.88000    10.59000  
2005  154   27.01000    13.38000  
2005  155   24.70000    11.61000  
2005  156   19.18000    11.14000  
2005  157   27.31000    14.07000  
2005  158   30.60000    16.14000  
2005  159   31.16000    16.04000  
2005  160   32.39000    16.77000  
2005  161   32.23000    15.68000  
2005  162   33.72000    17.57000  
2005  163   23.33000    10.95000  
2005  164   25.47000    12.58000  
2005  165   22.98000    12.25000  
2005  166   26.95000    10.33000  
2005  167   24.90000    10.61000  
2005  168   26.01000    14.27000  
2005  169   29.97000    16.48000  
2005  170   24.57000    12.84000  
2005  171   26.58000    11.58000  
2005  172   23.51000    10.04000  
2005  173   21.22000    10.14000  
2005  174   26.41000    13.43000  
2005  175   29.21000    14.12000  
2005  176   28.27000    15.44000  
2005  177   28.73000    16.36000  
2005  178   23.43000    13.82000  
2005  179   18.45000    11.54000  
2005  180   26.50000    12.56000  
2005  181   30.82000    15.68000  
2005  182   31.89000    19.02000  
2005  183   30.96000    21.26000  
2005  184   25.02000    13.67000  
2005  185   29.95000    15.97000  
2005  186   31.94000    17.09000  
2005  187   31.72000    17.60000  
2005  188   30.67000    18.29000  
2005  189   28.98000    19.56000  
2005  190   27.05000    16.72000  
2005  191   26.15000    12.07000  
2005  192   27.43000    14.94000  
2005  193   29.51000    17.25000  
2005  194   20.97000    10.95000  
2005  195   27.37000    14.13000  
2005  196   31.48000    17.35000  
2005  197   30.37000    18.08000  
2005  198   26.71000    15.85000  
2005  199   26.34000    15.13000  
2005  200   28.30000    15.55000  
2005  201   31.10000    16.52000  
2005  202   32.07000    18.21000  
2005  203   31.88000    20.00000  
2005  204   30.67000    19.18000  
2005  205   29.30000    18.97000  
2005  206   33.07000    18.97000  
2005  207   30.01000    16.97000  
2005  208   26.65000    12.61000  
2005  209   24.52000    14.00000  
2005  210   23.43000    16.38000  
2005  211   26.73000    14.26000  
2005  212   29.62000    17.01000  
2005  213   31.34000    15.73000  
2005  214   33.97000    19.79000  
2005  215   34.62000    20.89000  
2005  216   35.86000    19.46000  
2005  217   35.35000    20.01000  
2005  218   29.05000    14.53000  
2005  219   23.58000    14.46000  
2005  220   21.78000    11.70000  
2005  221   26.35000    12.26000  
2005  222   28.36000    14.76000  
2005  223   29.24000    15.85000  
2005  224   30.04000    15.73000  
2005  225   31.65000    15.72000  
2005  226   30.72000    17.68000  
2005  227   28.02000    14.43000  
2005  228   29.21000    13.57000  
2005  229   29.51000    15.76000  
2005  230   31.87000    18.87000  
2005  231   27.37000    11.26000  
2005  232   19.49000    10.05000  
2005  233   25.07000    11.86000  
2005  234   26.88000    13.41000  
2005  235   27.37000    14.26000  
2005  236   28.80000    12.93000  
2005  237   20.65000     6.05000  
2005  238   21.52000     7.73000  
2005  239   26.30000    11.67000  
2005  240   21.18000     8.32000  
2005  241   12.03000     4.23000  
2005  242   20.79000     6.67000  
2005  243   25.84000     9.53000  
2005  244   25.02000    12.31000  
2005  245   23.44000    10.08000  
2005  246   22.12000     8.47000  
2005  247   21.75000    10.14000  
2005  248   21.90000    10.11000  
2005  249   23.06000     9.55000  
2005  250   22.45000     7.63000  
2005  251   16.87000     7.08000  
2005  252   17.71000     7.08000  
2005  253   22.92000     8.73000  
2005  254   26.01000    10.04000  
2005  255   27.33000    13.25000  
2005  256   28.05000    11.98000  
2005  257   24.45000     8.64000  
2005  258   25.22000     9.52000  
2005  259   26.08000     7.28000  
2005  260   24.28000     9.47000  
2005  261   26.30000    10.14000  
2005  262   25.56000    10.43000  
2005  263   24.47000    11.48000  
2005  264   20.80000     8.90000  
2005  265   16.05000     5.48000  
2005  266   16.21000     6.55000  
2005  267   16.29000     4.64000  
2005  268   14.09000     4.49000  
2005  269   13.44000     4.30000  
2005  270   16.98000     5.42000  
2005  271   22.37000     6.99000  
2005  272   23.00000     6.19000  
2005  273   24.44000     8.53000  
2005  274   26.72000     7.63000  
2005  275   20.64000     8.15000  
2005  276   11.86000     5.77000  
2005  277   11.87000     4.03000  
2005  278   14.45000     3.90000  
2005  279   15.66000     4.85000  
2005  280   11.87000     0.59000  
2005  281   15.51000    -0.19000  
2005  282   12.58000    -1.82000  
2005  283   14.53000    -0.89000  
2005  284   16.09000     1.14000  
2005  285   18.01000     2.89000  
2005  286   15.53000    -0.46000  
2005  287   17.18000     1.06000  
2005  288   16.97000    -0.05000  
2005  289   16.78000     0.11000  
2005  290   11.95000     0.70000  
2005  291   15.17000     0.72000  
2005  292   17.55000     2.47000  
2005  293   18.32000     1.89000  
2005  294    6.08000    -3.30000  
2005  295    2.08000   -10.02000  
2005  296    4.56000    -8.62000  
2005  297   10.05000    -6.55000  
2005  298    9.76000    -6.02000  
2005  299   10.00000    -6.32000  
2005  300    9.11000    -5.11000  
2005  301    9.25000    -4.88000  
2005  302    8.84000    -6.61000  
2005  303    7.55000    -5.07000  
2005  304    9.67000    -5.72000  
2005  305    7.69000    -5.34000  
2005  306    9.88000    -3.15000  
2005  307    9.36000    -4.52000  
2005  308    8.70000    -3.54000  
2005  309    8.48000    -4.30000  
2005  310    8.74000    -4.08000  
2005  311    6.88000    -5.35000  
2005  312    7.89000    -6.29000  
2005  313    8.12000    -5.23000  
2005  314    4.40000    -4.04000  
2005  315    5.46000    -4.93000  
2005  316   -1.84000   -12.32000  
2005  317   -0.82000   -11.69000  
2005  318   -1.43000   -10.99000  
2005  319   -0.75000   -11.02000  
2005  320   -2.10000   -13.65000  
2005  321   -3.41000   -15.36000  
2005  322   -1.10000   -14.45000  
2005  323    1.88000   -13.51000  
2005  324    1.74000   -11.54000  
2005  325    1.51000   -12.17000  
2005  326    0.18000   -11.19000  
2005  327   -1.70000   -12.38000  
2005  328    1.19000   -11.59000  
2005  329   -2.12000   -14.72000  
2005  330   -2.44000   -15.36000  
2005  331   -0.03000   -12.49000  
2005  332   -0.63000   -11.87000  
2005  333    0.71000   -11.63000  
2005  334   -1.13000   -10.04000  
2005  335    0.76000    -9.63000  
2005  336   -2.56000   -14.44000  
2005  337  -13.82000   -26.39000  
2005  338  -15.11000   -25.55000  
2005  339   -8.27000   -19.94000  
2005  340   -6.81000   -14.76000  
2005  341   -4.83000   -10.04000  
2005  342    0.66000    -6.36000  
2005  343   -0.39000   -13.10000  
2005  344   -2.46000   -13.67000  
2005  345   -1.50000   -10.78000  
2005  346   -7.27000   -16.66000  
2005  347   -5.28000   -16.33000  
2005  348   -4.91000   -17.32000  
2005  349   -5.06000   -17.08000  
2005  350   -5.45000   -17.57000  
2005  351   -5.22000   -17.05000  
2005  352   -2.77000   -14.16000  
2005  353   -6.61000   -15.13000  
2005  354  -10.85000   -25.19000  
2005  355  -18.29000   -26.43000  
2005  356  -13.80000   -25.45000  
2005  357   -9.17000   -22.46000  
2005  358   -8.63000   -21.49000  
2005  359  -10.50000   -19.44000  
2005  360   -9.19000   -16.12000  
2005  361  -12.48000   -23.27000  
2005  362  -15.47000   -28.53000  
2005  363  -19.07000   -28.66000  
2005  364  -12.06000   -27.27000  
2005  365  -11.81000   -24.53000  
2006    1  -11.11000   -24.41000  
2006    2  -10.34000   -24.97000  
2006    3  -10.85000   -23.70000  
2006    4   -8.28000   -21.58000  
2006    5   -6.42000   -19.56000  
2006    6   -7.63000   -17.03000  
2006    7   -6.69000   -17.44000  
2006    8   -7.45000   -21.54000  
2006    9   -9.43000   -20.04000  
2006   10   -8.19000   -23.49000  
2006   11   -8.80000   -22.62000  
2006   12   -9.78000   -21.51000  
2006   13  -10.26000   -25.26000  
2006   14  -12.00000   -24.52000  
2006   15  -12.76000   -23.73000  
2006   16  -12.17000   -21.68000  
2006   17  -10.99000   -21.81000  
2006   18  -10.01000   -21.43000  
2006   19   -8.59000   -16.10000  
2006   20  -14.15000   -24.71000  
2006   21  -16.78000   -33.20000  
2006   22  -18.84000   -32.42000  
2006   23  -18.52000   -31.59000  
2006   24  -19.07000   -30.85000  
2006   25  -18.14000   -30.39000  
2006   26  -17.51000   -29.99000  
2006   27  -20.04000   -32.77000  
2006   28  -19.18000   -32.17000  
2006   29  -17.53000   -30.01000  
2006   30  -19.08000   -31.35000  
2006   31  -19.52000   -31.92000  
2006   32  -18.95000   -31.41000  
2006   33  -16.20000   -28.13000  
2006   34  -17.54000   -27.48000  
2006   35  -14.87000   -27.35000  
2006   36  -14.06000   -26.06000  
2006   37  -15.04000   -29.90000  
2006   38  -13.66000   -28.39000  
2006   39  -12.57000   -24.06000  
2006   40  -11.00000   -25.50000  
2006   41  -13.46000   -26.84000  
2006   42  -13.92000   -28.38000  
2006   43  -12.80000   -26.63000  
2006   44  -10.23000   -20.79000  
2006   45   -8.75000   -23.07000  
2006   46  -10.37000   -22.50000  
2006   47   -5.39000   -19.39000  
2006   48   -4.82000   -15.58000  
2006   49   -2.18000   -15.64000  
2006   50    0.60000   -14.40000  
2006   51    0.30000   -13.41000  
2006   52   -4.77000   -16.09000  
2006   53   -1.17000   -14.29000  
2006   54   -4.00000   -12.53000  
2006   55   -2.92000   -19.27000  
2006   56   -3.81000   -18.19000  
2006   57   -0.91000   -15.02000  
2006   58    2.28000   -12.25000  
2006   59    3.65000   -12.37000  
2006   60    0.77000   -12.40000  
2006   61    6.29000    -9.37000  
2006   62    8.89000    -7.14000  
2006   63    9.00000    -5.83000  
2006   64    4.82000    -6.53000  
2006   65    3.80000    -7.71000  
2006   66    6.86000    -7.03000  
2006   67    9.94000    -5.17000  
2006   68   12.14000    -2.02000  
2006   69   11.74000    -0.80000  
2006   70    7.14000    -9.21000  
2006   71    0.32000    -9.66000  
2006   72    8.27000    -5.62000  
2006   73    5.12000    -8.26000  
2006   74   10.27000    -6.44000  
2006   75   13.20000    -0.95000  
2006   76   12.01000    -6.90000  
2006   77    4.47000    -7.44000  
2006   78    8.77000    -4.50000  
2006   79    5.83000    -7.17000  
2006   80    6.87000    -8.04000  
2006   81    6.37000    -7.27000  
2006   82   11.72000    -3.19000  
2006   83   11.98000    -2.32000  
2006   84   14.35000    -0.05000  
2006   85   11.37000    -3.62000  
2006   86    4.43000    -7.08000  
2006   87    2.36000    -8.30000  
2006   88    2.99000    -7.19000  
2006   89    1.59000    -5.42000  
2006   90   -1.34000   -10.31000  
2006   91    4.18000    -9.08000  
2006   92    8.39000    -5.97000  
2006   93   11.08000    -2.45000  
2006   94   13.27000    -0.67000  
2006   95   13.29000    -2.59000  
2006   96   15.31000     0.56000  
2006   97   15.19000     3.42000  
2006   98   15.86000     2.26000  
2006   99    6.87000    -4.09000  
2006  100    9.13000    -2.84000  
2006  101   11.33000    -1.73000  
2006  102   13.02000    -0.68000  
2006  103   16.81000     0.23000  
2006  104   17.53000     3.70000  
2006  105   20.91000     7.15000  
2006  106   22.96000     6.01000  
2006  107   24.45000     8.44000  
2006  108   18.94000     2.09000  
2006  109   12.86000    -1.87000  
2006  110    4.83000    -2.41000  
2006  111    6.64000    -4.95000  
2006  112    9.92000    -2.93000  
2006  113   16.05000    -0.74000  
2006  114   19.10000     2.73000  
2006  115   21.32000     6.26000  
2006  116   20.98000     7.07000  
2006  117   24.56000    11.13000  
2006  118   24.68000     8.29000  
2006  119   13.38000     4.75000  
2006  120   19.30000     7.37000  
2006  121   12.88000    -0.03000  
2006  122    7.43000    -1.65000  
2006  123   11.94000    -1.16000  
2006  124   17.26000     3.15000  
2006  125   23.68000    10.84000  
2006  126   19.47000     4.51000  
2006  127   16.68000     6.20000  
2006  128    9.67000    -0.18000  
2006  129   12.50000     1.45000  
2006  130   15.10000     0.59000  
2006  131   15.75000     2.37000  
2006  132   20.75000     6.66000  
2006  133   26.40000    11.68000  
2006  134   27.27000    10.78000  
2006  135   26.12000    12.09000  
2006  136   19.69000     7.57000  
2006  137   20.57000     7.16000  
2006  138   21.71000     8.47000  
2006  139   22.91000     4.87000  
2006  140   21.06000     8.85000  
2006  141   23.32000    10.69000  
2006  142   26.50000    10.28000  
2006  143   26.67000    11.72000  
2006  144   29.43000    15.47000  
2006  145   29.94000    12.06000  
2006  146   19.94000     6.56000  
2006  147   26.31000    10.46000  
2006  148   18.88000     2.57000  
2006  149   19.18000     5.31000  
2006  150   26.95000    11.99000  
2006  151   24.01000    10.62000  
2006  152   24.99000    10.46000  
2006  153   23.88000    10.59000  
2006  154   27.01000    13.38000  
2006  155   24.70000    11.61000  
2006  156   19.18000    11.14000  
2006  157   27.31000    14.07000  
2006  158   30.60000    16.14000  
2006  159   31.16000    16.04000  
2006  160   32.39000    16.77000  
2006  161   32.23000    15.68000  
2006  162   33.72000    17.57000  
2006  163   23.33000    10.95000  
2006  164   25.47000    12.58000  
2006  165   22.98000    12.25000  
2006  166   26.95000    10.33000  
2006  167   24.90000    10.61000  
2006  168   26.01000    14.27000  
2006  169   29.97000    16.48000  
2006  170   24.57000    12.84000  
2006  171   26.58000    11.58000  
2006  172   23.51000    10.04000  
2006  173   21.22000    10.14000  
2006  174   26.41000    13.43000  
2006  175   29.21000    14.12000  
2006  176   28.27000    15.44000  
2006  177   28.73000    16.36000  
2006  178   23.43000    13.82000  
2006  179   18.45000    11.54000  
2006  180   26.50000    12.56000  
2006  181   30.82000    15.68000  
2006  182   31.89000    19.02000  
2006  183   30.96000    21.26000  
2006  184   25.02000    13.67000  
2006  185   29.95000    15.97000  
2006  186   31.94000    17.09000  
2006  187   31.72000    17.60000  
2006  188   30.67000    18.29000  
2006  189   28.98000    19.56000  
2006  190   27.05000    16.72000  
2006  191   26.15000    12.07000  
2006  192   27.43000    14.94000  
2006  193   29.51000    17.25000  
2006  194   20.97000    10.95000  
2006  195   27.37000    14.13000  
2006  196   31.48000    17.35000  
2006  197   30.37000    18.08000  
2006  198   26.71000    15.85000  
2006  199   26.34000    15.13000  
2006  200   28.30000    15.55000  
2006  201   31.10000    16.52000  
2006  202   32.07000    18.21000  
2006  203   31.88000    20.00000  
2006  204   30.67000    19.18000  
2006  205   29.30000    18.97000  
2006  206   33.07000    18.97000  
2006  207   30.01000    16.97000  
2006  208   26.65000    12.61000  
2006  209   24.52000    14.00000  
2006  210   23.43000    16.38000  
2006  211   26.73000    14.26000  
2006  212   29.62000    17.01000  
2006  213   31.34000    15.73000  
2006  214   33.97000    19.79000  
2006  215   34.62000    20.89000  
2006  216   35.86000    19.46000  
2006  217   35.35000    20.01000  
2006  218   29.05000    14.53000  
2006  219   23.58000    14.46000  
2006  220   21.78000    11.70000  
2006  221   26.35000    12.26000  
2006  222   28.36000    14.76000  
2006  223   29.24000    15.85000  
2006  224   30.04000    15.73000  
2006  225   31.65000    15.72000  
2006  226   30.72000    17.68000  
2006  227   28.02000    14.43000  
2006  228   29.21000    13.57000  
2006  229   29.51000    15.76000  
2006  230   31.87000    18.87000  
2006  231   27.37000    11.26000  
2006  232   19.49000    10.05000  
2006  233   25.07000    11.86000  
2006  234   26.88000    13.41000  
2006  235   27.37000    14.26000  
2006  236   28.80000    12.93000  
2006  237   20.65000     6.05000  
2006  238   21.52000     7.73000  
2006  239   26.30000    11.67000  
2006  240   21.18000     8.32000  
2006  241   12.03000     4.23000  
2006  242   20.79000     6.67000  
2006  243   25.84000     9.53000  
2006  244   25.02000    12.31000  
2006  245   23.44000    10.08000  
2006  246   22.12000     8.47000  
2006  247   21.75000    10.14000  
2006  248   21.90000    10.11000  
2006  249   23.06000     9.55000  
2006  250   22.45000     7.63000  
2006  251   16.87000     7.08000  
2006  252   17.71000     7.08000  
2006  253   22.92000     8.73000  
2006  254   26.01000    10.04000  
2006  255   27.33000    13.25000  
2006  256   28.05000    11.98000  
2006  257   24.45000     8.64000  
2006  258   25.22000     9.52000  
2006  259   26.08000     7.28000  
2006  260   24.28000     9.47000  
2006  261   26.30000    10.14000  
2006  262   25.56000    10.43000  
2006  263   24.47000    11.48000  
2006  264   20.80000     8.90000  
2006  265   16.05000     5.48000  
2006  266   16.21000     6.55000  
2006  267   16.29000     4.64000  
2006  268   14.09000     4.49000  
2006  269   13.44000     4.30000  
2006  270   16.98000     5.42000  
2006  271   22.37000     6.99000  
2006  272   23.00000     6.19000  
2006  273   24.44000     8.53000  
2006  274   26.72000     7.63000  
2006  275   20.64000     8.15000  
2006  276   11.86000     5.77000  
2006  277   11.87000     4.03000  
2006  278   14.45000     3.90000  
2006  279   15.66000     4.85000  
2006  280   11.87000     0.59000  
2006  281   15.51000    -0.19000  
2006  282   12.58000    -1.82000  
2006  283   14.53000    -0.89000  
2006  284   16.09000     1.14000  
2006  285   18.01000     2.89000  
2006  286   15.53000    -0.46000  
2006  287   17.18000     1.06000  
2006  288   16.97000    -0.05000  
2006  289   16.78000     0.11000  
2006  290   11.95000     0.70000  
2006  291   15.17000     0.72000  
2006  292   17.55000     2.47000  
2006  293   18.32000     1.89000  
2006  294    6.08000    -3.30000  
2006  295    2.08000   -10.02000  
2006  296    4.56000    -8.62000  
2006  297   10.05000    -6.55000  
2006  298    9.76000    -6.02000  
2006  299   10.00000    -6.32000  
2006  300    9.11000    -5.11000  
2006  301    9.25000    -4.88000  
2006  302    8.84000    -6.61000  
2006  303    7.55000    -5.07000  
2006  304    9.67000    -5.72000  
2006  305    7.69000    -5.34000  
2006  306    9.88000    -3.15000  
2006  307    9.36000    -4.52000  
2006  308    8.70000    -3.54000  
2006  309    8.48000    -4.30000  
2006  310    8.74000    -4.08000  
2006  311    6.88000    -5.35000  
2006  312    7.89000    -6.29000  
2006  313    8.12000    -5.23000  
2006  314    4.40000    -4.04000  
2006  315    5.46000    -4.93000  
2006  316   -1.84000   -12.32000  
2006  317   -0.82000   -11.69000  
2006  318   -1.43000   -10.99000  
2006  319   -0.75000   -11.02000  
2006  320   -2.10000   -13.65000  
2006  321   -3.41000   -15.36000  
2006  322   -1.10000   -14.45000  
2006  323    1.88000   -13.51000  
2006  324    1.74000   -11.54000  
2006  325    1.51000   -12.17000  
2006  326    0.18000   -11.19000  
2006  327   -1.70000   -12.38000  
2006  328    1.19000   -11.59000  
2006  329   -2.12000   -14.72000  
2006  330   -2.44000   -15.36000  
2006  331   -0.03000   -12.49000  
2006  332   -0.63000   -11.87000  
2006  333    0.71000   -11.63000  
2006  334   -1.13000   -10.04000  
2006  335    0.76000    -9.63000  
2006  336   -2.56000   -14.44000  
2006  337  -13.82000   -26.39000  
2006  338  -15.11000   -25.55000  
2006  339   -8.27000   -19.94000  
2006  340   -6.81000   -14.76000  
2006  341   -4.83000   -10.04000  
2006  342    0.66000    -6.36000  
2006  343   -0.39000   -13.10000  
2006  344   -2.46000   -13.67000  
2006  345   -1.50000   -10.78000  
2006  346   -7.27000   -16.66000  
2006  347   -5.28000   -16.33000  
2006  348   -4.91000   -17.32000  
2006  349   -5.06000   -17.08000  
2006  350   -5.45000   -17.57000  
2006  351   -5.22000   -17.05000  
2006  352   -2.77000   -14.16000  
2006  353   -6.61000   -15.13000  
2006  354  -10.85000   -25.19000  
2006  355  -18.29000   -26.43000  
2006  356  -13.80000   -25.45000  
2006  357   -9.17000   -22.46000  
2006  358   -8.63000   -21.49000  
2006  359  -10.50000   -19.44000  
2006  360   -9.19000   -16.12000  
2006  361  -12.48000   -23.27000  
2006  362  -15.47000   -28.53000  
2006  363  -19.07000   -28.66000  
2006  364  -12.06000   -27.27000  
2006  365  -11.81000   -24.53000  
2007    1  -11.11000   -24.41000  
2007    2  -10.34000   -24.97000  
2007    3  -10.85000   -23.70000  
2007    4   -8.28000   -21.58000  
2007    5   -6.42000   -19.56000  
2007    6   -7.63000   -17.03000  
2007    7   -6.69000   -17.44000  
2007    8   -7.45000   -21.54000  
2007    9   -9.43000   -20.04000  
2007   10   -8.19000   -23.49000  
2007   11   -8.80000   -22.62000  
2007   12   -9.78000   -21.51000  
2007   13  -10.26000   -25.26000  
2007   14  -12.00000   -24.52000  
2007   15  -12.76000   -23.73000  
2007   16  -12.17000   -21.68000  
2007   17  -10.99000   -21.81000  
2007   18  -10.01000   -21.43000  
2007   19   -8.59000   -16.10000  
2007   20  -14.15000   -24.71000  
2007   21  -16.78000   -33.20000  
2007   22  -18.84000   -32.42000  
2007   23  -18.52000   -31.59000  
2007   24  -19.07000   -30.85000  
2007   25  -18.14000   -30.39000  
2007   26  -17.51000   -29.99000  
2007   27  -20.04000   -32.77000  
2007   28  -19.18000   -32.17000  
2007   29  -17.53000   -30.01000  
2007   30  -19.08000   -31.35000  
2007   31  -19.52000   -31.92000  
2007   32  -18.95000   -31.41000  
2007   33  -16.20000   -28.13000  
2007   34  -17.54000   -27.48000  
2007   35  -14.87000   -27.35000  
2007   36  -14.06000   -26.06000  
2007   37  -15.04000   -29.90000  
2007   38  -13.66000   -28.39000  
2007   39  -12.57000   -24.06000  
2007   40  -11.00000   -25.50000  
2007   41  -13.46000   -26.84000  
2007   42  -13.92000   -28.38000  
2007   43  -12.80000   -26.63000  
2007   44  -10.23000   -20.79000  
2007   45   -8.75000   -23.07000  
2007   46  -10.37000   -22.50000  
2007   47   -5.39000   -19.39000  
2007   48   -4.82000   -15.58000  
2007   49   -2.18000   -15.64000  
2007   50    0.60000   -14.40000  
2007   51    0.30000   -13.41000  
2007   52   -4.77000   -16.09000  
2007   53   -1.17000   -14.29000  
2007   54   -4.00000   -12.53000  
2007   55   -2.92000   -19.27000  
2007   56   -3.81000   -18.19000  
2007   57   -0.91000   -15.02000  
2007   58    2.28000   -12.25000  
2007   59    3.65000   -12.37000  
2007   60    0.77000   -12.40000  
2007   61    6.29000    -9.37000  
2007   62    8.89000    -7.14000  
2007   63    9.00000    -5.83000  
2007   64    4.82000    -6.53000  
2007   65    3.80000    -7.71000  
2007   66    6.86000    -7.03000  
2007   67    9.94000    -5.17000  
2007   68   12.14000    -2.02000  
2007   69   11.74000    -0.80000  
2007   70    7.14000    -9.21000  
2007   71    0.32000    -9.66000  
2007   72    8.27000    -5.62000  
2007   73    5.12000    -8.26000  
2007   74   10.27000    -6.44000  
2007   75   13.20000    -0.95000  
2007   76   12.01000    -6.90000  
2007   77    4.47000    -7.44000  
2007   78    8.77000    -4.50000  
2007   79    5.83000    -7.17000  
2007   80    6.87000    -8.04000  
2007   81    6.37000    -7.27000  
2007   82   11.72000    -3.19000  
2007   83   11.98000    -2.32000  
2007   84   14.35000    -0.05000  
2007   85   11.37000    -3.62000  
2007   86    4.43000    -7.08000  
2007   87    2.36000    -8.30000  
2007   88    2.99000    -7.19000  
2007   89    1.59000    -5.42000  
2007   90   -1.34000   -10.31000  
2007   91    4.18000    -9.08000  
2007   92    8.39000    -5.97000  
2007   93   11.08000    -2.45000  
2007   94   13.27000    -0.67000  
2007   95   13.29000    -2.59000  
2007   96   15.31000     0.56000  
2007   97   15.19000     3.42000  
2007   98   15.86000     2.26000  