codes.sft: written by SWAT+ editor v3.0.8 on 2025-11-17 21:11 for SWAT+ rev.61.0.1
hyd           landscape     plnt          sed           nut           ch_sed        ch_nut        res           
n             n             n             n             n             n             n             n             
