soils.sol: written by SWAT+ editor v3.0.8 on 2025-10-22 23:03 for SWAT+ rev.61.0.1
name                            nly           hyd_grp        dp_tot    anion_excl      perc_crk  texture                              dp            bd           awc        soil_k        carbon          clay          silt          sand          rock           alb        usle_k            ec         caco3            ph  
GYl                               2                 C    1000.00000       0.50000       0.50000  CL-CL                      
                                                                                                                               300.00000       1.51000       0.12000       3.33000       0.47000      32.00000      29.00000      39.00000       2.00000       0.01000       0.15845       1.60000       0.00000       0.00000  
                                                                                                                              1000.00000       1.47000       0.13000       1.96000       0.21000      36.00000      34.00000      30.00000       3.00000       0.01000       0.13284       2.40000       0.00000       0.00000  
GYk                               2                 C    1000.00000       0.50000       0.50000  L-L                        
                                                                                                                               300.00000       1.54000       0.14000       7.06000       0.41000      22.00000      44.00000      34.00000       2.00000       0.01000       0.17767       3.50000       0.00000       0.00000  
                                                                                                                              1000.00000       1.56000       0.13000       5.73000       0.22000      24.00000      38.00000      38.00000       5.00000       0.01000       0.13905       3.60000       0.00000       0.00000  
CMc                               2                 C    1000.00000       0.50000       0.50000  L-L                        
                                                                                                                               300.00000       1.52000       0.13000       8.47000       0.65000      21.00000      43.00000      36.00000       6.00000       0.01000       0.17456       0.40000       0.00000       0.00000  
                                                                                                                              1000.00000       1.53000       0.13000       5.78000       0.43000      23.00000      43.00000      34.00000      10.00000       0.01000       0.14343       0.30000       0.00000       0.00000  
VRk                               2                 B    1000.00000       0.50000       0.50000  SCL-SCL                    
                                                                                                                               300.00000       1.55000       0.10000       5.98000       0.50000      27.00000      22.00000      51.00000       6.00000       0.01000       0.15514       0.20000       0.00000       0.00000  
                                                                                                                              1000.00000       1.51000       0.11000       1.72000       0.31000      37.00000      19.00000      44.00000       3.00000       0.01000       0.11716       0.10000       0.00000       0.00000  
RGc                               2                 B    1000.00000       0.50000       0.50000  L-L                        
                                                                                                                               300.00000       1.52000       0.11000       9.12000       0.75000      21.00000      35.00000      44.00000      14.00000       0.01000       0.16763       0.20000       0.00000       0.00000  
                                                                                                                              1000.00000       1.53000       0.11000       4.99000       0.47000      25.00000      35.00000      40.00000      18.00000       0.01000       0.13756       0.30000       0.00000       0.00000  
LPe                               1                 D     300.00000       0.50000       0.50000  SL                         
                                                                                                                               300.00000       1.55000       0.06000      45.68000       0.60000       8.00000      16.00000      76.00000      20.00000       0.01000       0.14982       0.10000       0.00000       0.00000  
FLs                               2                 B    1000.00000       0.50000       0.50000  L-L                        
                                                                                                                               300.00000       1.56000       0.14000      10.70000       0.42000      17.00000      46.00000      37.00000       4.00000       0.01000       0.18206       0.10000       0.00000       0.00000  
                                                                                                                              1000.00000       1.54000       0.13000       7.66000       0.47000      21.00000      42.00000      37.00000       8.00000       0.01000       0.14351       0.10000       0.00000       0.00000  
SCk                               2                 C    1000.00000       0.50000       0.50000  L-L                        
                                                                                                                               300.00000       1.52000       0.14000       5.89000       0.46000      23.00000      46.00000      31.00000       7.00000       0.01000       0.17887      11.20000       0.00000       0.00000  
                                                                                                                              1000.00000       1.53000       0.13000       4.19000       0.27000      26.00000      43.00000      31.00000       8.00000       0.01000       0.14234      24.00000       0.00000       0.00000  
CLl                               1                 D     300.00000       0.50000       0.50000  SCL                        
                                                                                                                               300.00000       1.57000       0.11000       7.49000       0.35000      25.00000      24.00000      51.00000       1.00000       0.01000       0.16034       0.30000       0.00000       0.00000  
ARh                               2                 A    1000.00000       0.50000       0.50000  S-S                        
                                                                                                                               300.00000       1.53000       0.04000      89.55000       0.43000       5.00000       6.00000      89.00000      10.00000       0.01000       0.08585       0.10000       0.00000       0.00000  
                                                                                                                              1000.00000       1.55000       0.04000      80.65000       0.24000       6.00000       5.00000      89.00000      10.00000       0.01000       0.06593       0.10000       0.00000       0.00000  
SCm                               2                 C    1000.00000       0.50000       0.50000  CL-CL                      
                                                                                                                               300.00000       1.46000       0.14000       2.87000       0.49000      32.00000      44.00000      24.00000       7.00000       0.01000       0.17578      23.20000       0.00000       0.00000  
                                                                                                                              1000.00000       1.45000       0.13000       1.91000       0.27000      36.00000      40.00000      24.00000       8.00000       0.01000       0.14049      15.30000       0.00000       0.00000                            
FLc                               2                 C    1000.00000       0.50000       0.50000  L-L                        
                                                                                                                               300.00000       1.53000       0.13000       8.49000       0.60000      18.00000      48.00000      34.00000      15.00000       0.01000       0.18109       0.70000       0.00000       0.00000  
                                                                                                                              1000.00000       1.56000       0.13000       8.81000       0.40000      18.00000      46.00000      36.00000      10.00000       0.01000       0.14684       0.50000       0.00000       0.00000  
ARb                               2                 A    1000.00000       0.50000       0.50000  SCL-LS                     
                                                                                                                               300.00000       1.60000       0.08000       9.34000       0.43000      24.00000      10.00000      66.00000      10.00000       0.01000       0.13406       0.10000       0.00000       0.00000  
                                                                                                                              1000.00000       1.57000       0.04000      69.22000       0.24000       7.00000       7.00000      86.00000      10.00000       0.01000       0.07695       0.10000       0.00000       0.00000  
SCy                               2                 B    1000.00000       0.50000       0.50000  L-L                        
                                                                                                                               300.00000       1.51000       0.12000      18.14000       0.99000      16.00000      36.00000      48.00000       7.00000       0.01000       0.16531      42.80000       0.00000       0.00000  
                                                                                                                              1000.00000       1.60000       0.11000      10.32000       0.17000      18.00000      37.00000      45.00000       8.00000       0.01000       0.14158      32.20000       0.00000       0.00000  
SNk                               2                 B    1000.00000       0.50000       0.50000  SCL-CL                     
                                                                                                                               300.00000       1.58000       0.10000       7.85000       0.50000      23.00000      27.00000      50.00000       5.00000       0.01000       0.16402       1.00000       0.00000       0.00000  
                                                                                                                              1000.00000       1.53000       0.11000       2.70000       0.29000      33.00000      24.00000      43.00000       5.00000       0.01000       0.12453       8.80000       0.00000       0.00000  
ARc                               1                 A    1000.00000       0.50000       0.50000  S-S                        
                                                                                                                               300.00000       1.53000       0.04000      99.85000       0.40000       5.00000       6.00000      89.00000       3.00000       0.01000       0.08596       0.10000       0.00000       0.00000  
ATc                               2                 C    1000.00000       0.50000       0.50000  SIL-L                      
                                                                                                                               300.00000       1.44000       0.14000       9.04000       1.12000      21.00000      50.00000      29.00000      10.00000       0.01000       0.16680       0.30000       0.00000       0.00000  
                                                                                                                              1000.00000       1.49000       0.13000       8.38000       0.82000      21.00000      45.00000      34.00000      10.00000       0.01000       0.14688       0.30000       0.00000       0.00000  
PHg                               2                 D    1000.00000       0.50000       0.50000  SIL-CL                     
                                                                                                                               300.00000       1.18000       0.13000       6.70000       2.94000      47.00000      43.00000      10.00000       2.00000       0.01000       0.16222       0.10000       0.00000       0.00000  
                                                                                                                              1000.00000       1.47000       0.14000       2.73000       0.38000      33.00000      40.00000      27.00000       4.00000       0.01000       0.13968       0.10000       0.00000       0.00000  
SCn                               2                 C    1000.00000       0.50000       0.50000  L-L                        
                                                                                                                               300.00000       1.53000       0.14000       8.98000       0.56000      19.00000      47.00000      34.00000       7.00000       0.01000       0.18028      28.20000       0.00000       0.00000  
                                                                                                                              1000.00000       1.57000       0.13000       7.92000       0.30000      19.00000      45.00000      36.00000       8.00000       0.01000       0.14548      12.30000       0.00000       0.00000  
GLm                               2                 B    1000.00000       0.50000       0.50000  L-CL                       
                                                                                                                               300.00000       1.41000       0.14000      13.21000       1.65000      22.00000      39.00000      39.00000       4.00000       0.01000       0.13867       0.10000       0.00000       0.00000  
                                                                                                                              1000.00000       1.49000       0.13000       5.25000       0.69000      28.00000      35.00000      37.00000       3.00000       0.01000       0.13685       0.10000       0.00000       0.00000  
ATa                               2                 C    1000.00000       0.50000       0.50000  L-L                        
                                                                                                                               300.00000       1.47000       0.13000      12.53000       1.15000      19.00000      42.00000      39.00000      10.00000       0.01000       0.15927       0.30000       0.00000       0.00000  
                                                                                                                              1000.00000       1.49000       0.13000       6.00000       0.78000      25.00000      41.00000      34.00000      10.00000       0.01000       0.14231       0.30000       0.00000       0.00000  
KSh                               2                 C    1000.00000       0.50000       0.50000  CL-CL                      
                                                                                                                               300.00000       1.42000       0.14000       4.77000       1.16000      32.00000      38.00000      30.00000       1.00000       0.01000       0.14914       0.60000       0.00000       0.00000  
                                                                                                                              1000.00000       1.49000       0.14000       3.79000       0.46000      30.00000      40.00000      30.00000       1.00000       0.01000       0.13964       1.60000       0.00000       0.00000  
LPk                               1                 D     300.00000       0.50000       0.50000  L                          
                                                                                                                               300.00000       1.34000       0.13000      16.41000       2.13000      19.00000      44.00000      37.00000      16.00000       0.01000       0.13726       0.10000       0.00000       0.00000  
LPi                               1                 D     300.00000       0.50000       0.50000  SCL                        
                                                                                                                               300.00000       1.44000       0.11000      48.49000       1.41000       6.00000      38.00000      56.00000      13.00000       0.01000       0.15808       0.10000       0.00000       0.00000                                                                                                                                 
CHk                               2                 C    1000.00000       0.50000       0.50000  L-L                        
                                                                                                                               300.00000       1.37000       0.15000       9.88000       1.65000      25.00000      47.00000      28.00000       4.00000       0.01000       0.14375       0.40000       0.00000       0.00000  
                                                                                                                              1000.00000       1.47000       0.13000       4.93000       0.78000      25.00000      47.00000      28.00000      17.00000       0.01000       0.14863       0.40000       0.00000       0.00000  
CMi                               2                 C    1000.00000       0.50000       0.50000  L-L                        
                                                                                                                               300.00000       1.33000       0.14000      14.09000       2.02000      20.00000      49.00000      31.00000      17.00000       0.01000       0.14123       0.10000       0.00000       0.00000  
                                                                                                                              1000.00000       1.50000       0.10000       7.05000       0.84000      19.00000      44.00000      37.00000      32.00000       0.01000       0.14689       0.10000       0.00000       0.00000  
KSl                               2                 C    1000.00000       0.50000       0.50000  L-CL                       
                                                                                                                               300.00000       1.44000       0.13000      10.38000       1.28000      22.00000      42.00000      36.00000       8.00000       0.01000       0.15199       0.40000       0.00000       0.00000  
                                                                                                                              1000.00000       1.48000       0.14000       4.45000       0.60000      28.00000      42.00000      30.00000       5.00000       0.01000       0.14234       0.70000       0.00000       0.00000                            
LPm                               1                 D     300.00000       0.50000       0.50000  L-L                        
                                                                                                                               300.00000       1.22000       0.16000      25.38000       3.02000      20.00000      45.00000      35.00000       6.00000       0.01000       0.13587       0.10000       0.00000       0.00000    
KSk                               2                 C    1000.00000       0.50000       0.50000  L-L                        
                                                                                                                               300.00000       1.40000       0.14000       7.69000       1.42000      26.00000      45.00000      29.00000       8.00000       0.01000       0.14780       0.70000       0.00000       0.00000  
                                                                                                                              1000.00000       1.50000       0.14000       5.85000       0.57000      24.00000      47.00000      29.00000       5.00000       0.01000       0.14769       2.50000       0.00000       0.00000  
SCg                               2                 B    1000.00000       0.50000       0.50000  L-L                        
                                                                                                                               300.00000       1.55000       0.13000       7.55000       0.42000      21.00000      42.00000      37.00000       7.00000       0.01000       0.17666       8.70000       0.00000       0.00000  
                                                                                                                              1000.00000       1.57000       0.12000       1.09000       0.30000      22.00000      37.00000      41.00000       8.00000       0.01000       0.13953       4.60000       0.00000       0.00000  
GYh                               2                 B    1000.00000       0.50000       0.50000  L-L                        
                                                                                                                               300.00000       1.53000       0.14000       6.51000       0.47000      24.00000      40.00000      36.00000       2.00000       0.01000       0.17282       0.80000       0.00000       0.00000  
                                                                                                                              1000.00000       1.54000       0.13000       4.36000       0.21000      27.00000      38.00000      35.00000       3.00000       0.01000       0.13792       1.10000       0.00000       0.00000  
GLk                               2                 B    1000.00000       0.50000       0.50000  L-L                        
                                                                                                                               300.00000       1.46000       0.13000      14.88000       1.30000      19.00000      40.00000      41.00000       4.00000       0.01000       0.15199       0.10000       0.00000       0.00000  
                                                                                                                              1000.00000       1.56000       0.12000      11.01000       0.44000      19.00000      37.00000      44.00000       5.00000       0.01000       0.14186       0.10000       0.00000       0.00000  
CLh                               2                 B    1000.00000       0.50000       0.50000  L-L                        
                                                                                                                               300.00000       1.55000       0.12000       8.48000       0.46000      21.00000      38.00000      41.00000       7.00000       0.01000       0.17382       0.30000       0.00000       0.00000  
                                                                                                                              1000.00000       1.55000       0.12000       6.67000       0.36000      23.00000      37.00000      40.00000       7.00000       0.01000       0.13939       0.40000       0.00000       0.00000  
PHh                               2                 B    1000.00000       0.50000       0.50000  L-L                        
                                                                                                                               300.00000       1.37000       0.14000      14.36000       1.95000      23.00000      39.00000      38.00000       2.00000       0.01000       0.13378       0.10000       0.00000       0.00000  
                                                                                                                              1000.00000       1.52000       0.13000       8.23000       0.67000      23.00000      37.00000      40.00000       4.00000       0.01000       0.14021       0.10000       0.00000       0.00000  
GRh                               2                 C    1000.00000       0.50000       0.50000  SIL-CL                     
                                                                                                                               300.00000       1.36000       0.16000      11.15000       1.60000      21.00000      54.00000      25.00000      10.00000       0.01000       0.15580       0.10000       0.00000       0.00000  
                                                                                                                              1000.00000       1.48000       0.14000       3.35000       0.40000      28.00000      49.00000      23.00000      10.00000       0.01000       0.15300       0.10000       0.00000       0.00000  
CMe                               2                 C    1000.00000       0.50000       0.50000  C-C                        
                                                                                                                               300.00000       1.33000       0.11000       1.21000       1.17000      48.00000      29.00000      23.00000      10.00000       0.01000       0.13462       0.10000       0.00000       0.00000  
                                                                                                                              1000.00000       1.38000       0.11000       0.82000       0.58000      45.00000      29.00000      26.00000      24.00000       0.01000       0.12768       0.10000       0.00000       0.00000  
PHc                               2                 B    1000.00000       0.50000       0.50000  L-L                        
                                                                                                                               300.00000       1.42000       0.15000      11.71000       1.37000      22.00000      43.00000      35.00000       3.00000       0.01000       0.14914       0.20000       0.00000       0.00000  
                                                                                                                              1000.00000       1.54000       0.14000       7.67000       0.48000      21.00000      44.00000      35.00000       5.00000       0.01000       0.14472       0.10000       0.00000       0.00000  
CHh                               2                 C    1000.00000       0.50000       0.50000  SIL-SIL                    
                                                                                                                               300.00000       1.35000       0.17000      10.98000       2.09000      23.00000      54.00000      23.00000       4.00000       0.01000       0.15030       0.10000       0.00000       0.00000  
                                                                                                                              1000.00000       1.46000       0.14000       6.27000       0.89000      22.00000      52.00000      26.00000      17.00000       0.01000       0.15639       0.10000       0.00000       0.00000  
CLp                               2                 B    1000.00000       0.50000       0.50000  SCL-SCL                    
                                                                                                                               300.00000       1.55000       0.09000       7.51000       0.60000      23.00000      25.00000      52.00000      19.00000       0.01000       0.16100       0.30000       0.00000       0.00000  
                                                                                                                              1000.00000       1.55000       0.10000       5.00000       0.49000      28.00000      23.00000      49.00000       8.00000       0.01000       0.12654       0.30000       0.00000       0.00000  
CHl                               2                 C    1000.00000       0.50000       0.50000  L-CL                       
                                                                                                                               300.00000       1.39000       0.14000      10.09000       1.64000      25.00000      41.00000      34.00000       4.00000       0.01000       0.13845       0.10000       0.00000       0.00000  
                                                                                                                              1000.00000       1.51000       0.11000       3.27000       0.78000      29.00000      37.00000      34.00000      16.00000       0.01000       0.13707       0.10000       0.00000       0.00000  
HSs                               2                 B    1000.00000       0.50000       0.50000  CL-SCL                     
                                                                                                                               300.00000       1.14000       0.11000      10.79000      39.40000      32.00000      33.00000      35.00000      28.00000       0.01000       0.12285       0.10000       0.00000       0.00000  