time.sim: written by SWAT+ editor v3.0.8 on 2025-11-17 21:10 for SWAT+ rev.61.0.1
day_start  yrc_start   day_end   yrc_end      step  
       0      2005         0      2018         0  
