weather-wgn.cli: written by SWAT+ editor v3.0.8 on 2025-11-17 21:10 for SWAT+ rev.61.0.1
376n1000e                      37.62360     100.00000    3651.00000        32  
 tmp_max_ave   tmp_min_ave    tmp_max_sd    tmp_min_sd       pcp_ave        pcp_sd      pcp_skew       wet_dry       wet_wet      pcp_days       pcp_hhr       slr_ave       dew_ave       wnd_ave  
   -10.55110     -21.53950       3.49971       4.69928       3.16796       0.40653       5.34292       0.07991       0.15116       2.68750       1.66846      12.07890       0.60544       4.48570  
    -7.70019     -20.03850       3.79359       5.47369       7.59628       0.75458       3.62176       0.12632       0.25694       4.50000       2.15663      16.27170       0.62786       4.38610  
    -2.81629     -15.53760       4.21176       5.96539      24.39540       1.59047       2.77577       0.24288       0.34154      10.15620       3.81637      21.43280       0.61161       4.69505  
     2.55256      -9.72668       4.37850       5.29041      39.20380       2.34951       2.73342       0.35870       0.34069      12.75000       7.13047      25.98900       0.59970       4.35101  
     8.20568      -2.74430       3.92094       3.17446      58.04650       3.14842       2.62940       0.42300       0.37103      15.75000       8.17108      26.69750       0.54517       3.93064  
    12.28200       1.69723       3.09874       2.18186      87.86660       4.01116       2.20252       0.51275       0.41516      18.96880      11.87540      25.02080       0.55076       3.57612  
    14.72350       4.25403       3.11164       1.91411     101.58800       4.64623       1.99039       0.48806       0.40325      19.21880       9.97773      23.47630       0.59625       3.28406  
    14.13510       3.65981       3.11236       2.14743      91.15770       4.87757       3.21614       0.34499       0.42629      17.59380      19.34560      21.50350       0.60791       3.27748  
     9.81135       0.51092       2.99157       2.33884      61.85620       3.75994       2.80542       0.32298       0.40042      14.90620       8.91609      18.74270       0.60380       3.24760  
     2.74122      -6.30528       3.56106       4.46767      22.26760       1.91482       4.46396       0.16778       0.34025       7.53125       6.84508      17.21420       0.57876       3.46780  
    -4.77826     -15.03060       3.51952       4.45008       3.74165       0.54767       6.17238       0.06088       0.21918       2.28125       2.12088      13.26130       0.57388       4.30655  
    -8.95500     -18.59640       3.42216       3.64643       1.38563       0.25764       7.52067       0.04021       0.05000       1.25000       1.24188      10.69500       0.56065       4.68226  
376n1003e                      37.62360     100.31200    3824.00000        32  
 tmp_max_ave   tmp_min_ave    tmp_max_sd    tmp_min_sd       pcp_ave        pcp_sd      pcp_skew       wet_dry       wet_wet      pcp_days       pcp_hhr       slr_ave       dew_ave       wnd_ave  
   -10.41940     -21.22420       3.40255       4.32875       4.16621       0.45963       4.60287       0.09434       0.24561       3.56250       1.76459      11.93260       0.61146       3.94501  
    -7.61797     -19.60250       3.69046       5.04199       9.22342       0.80465       3.38949       0.17135       0.26562       6.00000       2.31254      16.03830       0.63547       3.97044  
    -2.80414     -14.96550       4.16700       5.41512      26.57080       1.61094       2.59426       0.26825       0.35912      11.31250       3.89028      21.04480       0.62002       4.35014  
     2.84215      -8.66607       4.27119       4.41783      40.39880       2.25765       2.43682       0.37905       0.35402      13.59380       6.11870      25.27720       0.57890       4.15062  
     8.24201      -2.61524       3.88798       2.98181      57.56080       3.09117       2.60537       0.46058       0.34578      15.90620       7.72587      26.06890       0.53489       3.79000  
    12.07490       1.71726       3.07226       2.14374      82.74800       3.70001       2.06968       0.49133       0.41694      19.18750       9.56527      24.53880       0.55415       3.45400  
    14.42310       4.21303       3.14055       1.90597      93.10850       4.26197       2.05547       0.47120       0.40984      19.06250       8.92571      23.11780       0.60713       3.19192  
    13.76890       3.61782       3.15585       2.07934      85.19080       4.60650       3.12696       0.36111       0.41964      17.50000      15.15620      21.13590       0.62316       3.21055  
     9.42975       0.41684       3.03377       2.40942      62.74390       3.68739       2.65120       0.35714       0.38223      15.12500       8.52586      18.30720       0.62795       3.19695  
     2.75036      -6.15149       3.47618       4.47432      24.72150       1.98227       4.40973       0.20839       0.31408       8.65625       7.72558      16.85530       0.59216       3.30828  
    -4.57122     -14.47870       3.38426       3.74039       4.44933       0.59110       5.53372       0.07560       0.20690       2.71875       2.03917      13.09700       0.57011       3.85345  
    -8.91112     -18.43750       3.26629       3.23184       2.05854       0.31485       5.85211       0.05280       0.12281       1.78125       1.04842      10.57250       0.56988       4.06355  
376n1006e                      37.62360     100.62500    3756.00000        32  
 tmp_max_ave   tmp_min_ave    tmp_max_sd    tmp_min_sd       pcp_ave        pcp_sd      pcp_skew       wet_dry       wet_wet      pcp_days       pcp_hhr       slr_ave       dew_ave       wnd_ave  
   -10.46250     -20.92520       3.32812       4.19971       5.43932       0.52738       3.95970       0.11829       0.24648       4.43750       1.86853      11.80340       0.61818       3.65410  
    -7.68123     -19.19090       3.65077       4.88040      11.95360       0.90724       3.01844       0.22205       0.29339       7.56250       2.57870      15.79430       0.64165       3.76239  
    -2.95959     -14.61060       4.19938       5.32830      30.69040       1.71766       2.49810       0.32818       0.35854      12.81250       4.51993      20.65620       0.62791       4.16251  
     2.97553      -7.88925       4.31930       4.11190      44.59750       2.35504       2.33692       0.41463       0.36966      14.62500       5.95167      24.56750       0.56035       4.06018  
     8.08554      -2.59541       3.94996       2.94881      60.85080       3.12654       2.38592       0.42704       0.38286      16.40620       7.38281      25.49610       0.53049       3.68933  
    11.73660       1.70397       3.08307       2.12101      82.30860       3.59350       1.96390       0.54142       0.41158      19.43750       8.07375      24.15170       0.56102       3.34868  
    14.03420       4.14868       3.17944       1.90657      91.30270       4.21009       2.22328       0.47297       0.40997      19.43750       9.37511      22.75790       0.61924       3.10266  
    13.33160       3.58763       3.20481       2.01856      85.70930       4.57290       3.09314       0.39286       0.41259      17.87500      14.33360      20.74780       0.63654       3.14956  
     8.95009       0.34993       3.11010       2.44493      67.76100       3.75492       2.48002       0.38703       0.38207      16.03120       8.47029      17.85410       0.64869       3.17585  
     2.55698      -6.03486       3.41531       4.40410      29.56120       2.14296       3.83758       0.24096       0.35061      10.25000       7.67541      16.48820       0.60774       3.25147  
    -4.49660     -14.01990       3.35660       3.63000       5.60684       0.67372       4.87132       0.08421       0.23810       3.28125       2.28610      12.95500       0.56649       3.62896  
    -9.05702     -18.37830       3.15687       3.15219       2.94048       0.38222       4.82662       0.06828       0.19481       2.40625       1.04482      10.48300       0.58191       3.71306  
376n1009e                      37.62360     100.93800    3239.00000        32  
 tmp_max_ave   tmp_min_ave    tmp_max_sd    tmp_min_sd       pcp_ave        pcp_sd      pcp_skew       wet_dry       wet_wet      pcp_days       pcp_hhr       slr_ave       dew_ave       wnd_ave  
   -10.45080     -20.97300       3.30511       4.32173       7.25905       0.61418       3.49751       0.14487       0.29121       5.68750       2.04517      11.71850       0.63227       3.51233  
    -7.75781     -19.32290       3.64448       4.90381      15.80390       1.06313       2.60026       0.24466       0.34237       9.21875       2.46094      15.63690       0.66095       3.63695  
    -3.19843     -14.91930       4.22350       5.50707      37.17300       1.91455       2.29320       0.37244       0.35385      14.21880       5.42776      20.40860       0.65148       4.01318  
     2.85661      -7.68178       4.39638       3.98133      51.23250       2.57922       2.20084       0.39535       0.39425      15.21880       6.83126      24.06520       0.56508       3.96858  
     7.88093      -2.54240       4.01692       2.93224      67.69410       3.27732       2.12810       0.44543       0.38192      16.93750       7.19055      25.03030       0.53671       3.58985  
    11.49390       1.72123       3.11566       2.11088      87.64510       3.71873       1.84865       0.55728       0.41130      19.90620       9.10715      23.76070       0.57061       3.24302  
    13.78120       4.16563       3.21995       1.91175      97.77490       4.45191       2.27871       0.49176       0.42357      19.62500      10.75280      22.28670       0.62980       3.00389  
    13.03460       3.63561       3.26091       2.00439      92.74540       4.74885       2.97416       0.42157       0.41610      18.25000      15.56470      20.22620       0.64809       3.07140  
     8.60982       0.38029       3.20724       2.41036      77.72980       4.01481       2.27886       0.42651       0.39266      17.03120       8.42162      17.29520       0.66587       3.13377  
     2.39120      -5.88905       3.39515       4.22394      36.71230       2.42035       3.13361       0.26129       0.36022      11.62500       6.89105      16.10580       0.62679       3.19463  
    -4.38807     -13.76130       3.36723       3.72003       7.58810       0.81293       4.39625       0.10654       0.26119       4.18750       2.39605      12.85550       0.57082       3.51651  
    -9.09114     -18.33810       3.13335       3.15357       4.04316       0.45431       4.13242       0.08947       0.16667       3.18750       1.11271      10.43040       0.59565       3.54961  
376n1012e                      37.62360     101.25000    3160.00000        32  
 tmp_max_ave   tmp_min_ave    tmp_max_sd    tmp_min_sd       pcp_ave        pcp_sd      pcp_skew       wet_dry       wet_wet      pcp_days       pcp_hhr       slr_ave       dew_ave       wnd_ave  
   -10.12810     -21.08270       3.34122       4.81802       9.66669       0.72294       3.06649       0.17862       0.30493       6.96875       2.17855      11.58720       0.63600       3.39916  
    -7.57753     -19.25080       3.65064       5.13049      20.63350       1.26159       2.34471       0.30755       0.32759      10.87500       2.79980      15.42010       0.67179       3.50569  
    -3.10441     -14.59800       4.26724       5.66350      46.23600       2.20779       2.07309       0.38980       0.37649      15.68750       6.26830      19.98040       0.65666       3.87201  
     2.99012      -7.12180       4.50832       3.91258      59.62180       2.87797       2.02887       0.42544       0.37897      15.75000       7.83342      23.36160       0.56150       3.88782  
     7.89798      -2.21254       4.12445       3.01541      77.36120       3.59909       1.97130       0.45349       0.39394      17.53120       8.03530      24.33980       0.53657       3.51733  
    11.50710       2.02667       3.12982       2.09764      97.39520       4.01024       1.73148       0.58054       0.42296      20.68750       9.36911      23.10250       0.57461       3.16172  
    13.78620       4.49759       3.25211       1.91520     105.67800       4.73192       2.37797       0.49271       0.42989      20.28120      11.59390      21.54570       0.63199       2.91295  
    12.99160       3.93145       3.31602       2.02108     102.10900       4.92350       2.63337       0.46757       0.41479      19.43750      15.25770      19.48010       0.65375       2.98004  
     8.51695       0.62926       3.29670       2.42807      89.04340       4.30461       2.07476       0.45093       0.39623      18.21880       8.56221      16.55980       0.67622       3.06255  
     2.48824      -5.31977       3.37084       3.83257      44.38410       2.69266       2.73482       0.30104       0.35990      12.93750       6.33499      15.57800       0.63127       3.11444  
    -3.88053     -12.81520       3.41546       3.86040      10.04700       0.99898       4.21526       0.12547       0.27097       4.84375       3.10261      12.65030       0.54811       3.44437  
    -8.70813     -18.01780       3.22308       3.61474       5.51816       0.53954       3.67439       0.11516       0.20896       4.18750       1.33771      10.32440       0.59021       3.45476  
376n1016e                      37.62360     101.56200    4111.00000        32  
 tmp_max_ave   tmp_min_ave    tmp_max_sd    tmp_min_sd       pcp_ave        pcp_sd      pcp_skew       wet_dry       wet_wet      pcp_days       pcp_hhr       slr_ave       dew_ave       wnd_ave  
    -9.93447     -20.49280       3.32372       4.62893      14.17400       0.91861       2.54293       0.21944       0.32862       8.84375       2.58050      11.28440       0.64810       3.20907  
    -7.47387     -18.40110       3.68782       4.96452      28.35280       1.54889       2.07166       0.35366       0.36651      12.87500       3.56704      14.87740       0.68319       3.29942  
    -3.17873     -13.71110       4.23511       5.22660      59.45850       2.62061       1.80793       0.41419       0.40180      17.34380       6.27371      19.10460       0.67259       3.62926  
     2.84770      -6.67210       4.56133       3.90346      70.98370       3.27870       1.82831       0.42143       0.41481      16.87500       7.35638      22.50260       0.57447       3.70448  
     7.84922      -1.72439       4.16993       3.00292      93.69330       4.15284       1.93933       0.49206       0.40457      19.15620       9.10114      23.46940       0.53955       3.40822  
    11.51950       2.52442       3.16835       2.06755     116.49000       4.56184       1.66671       0.62069       0.44635      21.84380       9.29310      22.27290       0.57656       3.06697  
    13.80580       5.01019       3.29345       1.92623     124.62900       5.27585       2.51048       0.51840       0.43146      21.65620      17.24340      20.74580       0.63299       2.79970  
    12.92190       4.43040       3.35837       2.00837     120.79300       5.47669       2.41055       0.52647       0.39877      20.37500      15.51480      18.66780       0.65688       2.84551  
     8.36188       0.97593       3.35566       2.33828     105.59400       4.65936       1.84576       0.53125       0.41250      20.00000       8.31768      15.77980       0.68733       2.90321  
     2.38817      -4.86615       3.37674       3.55203      56.14280       3.05173       2.41232       0.36187       0.37657      14.93750       7.02022      14.92230       0.64656       2.92014  
    -3.71355     -12.34750       3.44764       3.86301      14.66590       1.29740       3.81091       0.16032       0.28643       6.21875       4.06662      12.41990       0.56126       3.22546  
    -8.48695     -17.53700       3.24778       3.51241       8.70146       0.71071       3.18778       0.16414       0.26425       6.03125       1.81686      10.13360       0.60487       3.28214  
376n1019e                      37.62360     101.87500    3929.00000        32  
 tmp_max_ave   tmp_min_ave    tmp_max_sd    tmp_min_sd       pcp_ave        pcp_sd      pcp_skew       wet_dry       wet_wet      pcp_days       pcp_hhr       slr_ave       dew_ave       wnd_ave  
    -9.80117     -19.88040       3.42300       4.59234      19.52170       1.13948       2.28789       0.25608       0.33623      10.78120       3.00768      11.07860       0.66247       2.90489  
    -7.39901     -17.59490       3.80574       4.87376      36.52810       1.86938       1.91042       0.41686       0.37204      14.53120       4.11678      14.56280       0.69643       3.00643  
    -3.14169     -12.95150       4.28308       5.01454      72.89040       3.05930       1.74556       0.43959       0.42620      18.84380       7.26866      18.65350       0.68854       3.32681  
     3.01664      -6.11795       4.66404       3.95058      80.74170       3.68814       1.71084       0.44279       0.40502      17.43750       7.43448      22.06750       0.58136       3.48878  
     8.25449      -1.13557       4.28334       3.13039     106.53200       4.73044       1.97017       0.48787       0.41290      19.37500      12.08720      23.03390       0.53946       3.31739  
    12.08680       3.20793       3.28746       2.07893     133.67200       5.33202       1.70859       0.61314       0.42711      21.43750      11.85770      21.77990       0.57189       3.00539  
    14.39540       5.75342       3.40158       1.96388     150.38900       6.22970       2.33717       0.51689       0.43822      21.75000      21.68940      20.31780       0.62480       2.73972  
    13.38870       5.13563       3.45148       2.03695     146.10800       6.32145       2.20162       0.51936       0.42669      21.31250      18.50870      18.22140       0.65226       2.74150  
     8.68978       1.50189       3.45777       2.31003     125.87000       5.22193       1.63026       0.54286       0.42941      21.25000      10.84230      15.34550       0.69155       2.73210  
     2.59520      -4.31746       3.47579       3.49021      69.43520       3.48011       2.15909       0.39121       0.38521      16.06250       7.96440      14.49320       0.65619       2.66424  
    -3.42335     -11.81090       3.57756       4.16433      19.31130       1.59579       3.42219       0.17970       0.31602       7.21875       4.44393      12.22480       0.57362       2.87943  
    -8.21687     -17.09160       3.41028       3.75774      12.62210       0.90487       2.91572       0.20408       0.27600       7.81250       2.33957       9.96628       0.61689       2.97520  
376n962e                       37.62360      96.25000    3693.00000        32  
 tmp_max_ave   tmp_min_ave    tmp_max_sd    tmp_min_sd       pcp_ave        pcp_sd      pcp_skew       wet_dry       wet_wet      pcp_days       pcp_hhr       slr_ave       dew_ave       wnd_ave  
   -11.29630     -24.68440       3.31104       4.83972       3.77435       0.41314       4.53493       0.10495       0.17544       3.56250       1.32059      11.87800       0.60923       3.15981  
    -8.06912     -21.70040       3.76502       5.23299       5.22632       0.61857       4.99389       0.11450       0.17797       3.68750       2.31194      15.81670       0.58120       3.63072  
    -2.00054     -14.56590       4.44279       4.98884       9.19388       0.89880       4.84736       0.14425       0.24138       5.43750       3.28406      20.89820       0.45976       4.72989  
     4.58416      -7.65783       4.09231       4.06723      12.77060       1.53921       6.09243       0.12641       0.28571       5.03125       5.86155      25.76090       0.36757       4.98221  
     9.94201      -1.40920       3.56077       3.35678      26.31940       2.22125       4.04784       0.21536       0.29771       8.18750       8.04010      27.53490       0.34895       4.49323  
    13.90440       3.60938       2.98628       2.78995      48.83570       3.71633       3.70723       0.27350       0.36267      11.71880      12.16890      26.38970       0.37671       3.98034  
    16.61110       6.45309       3.18870       2.71578      50.44470       3.58482       3.63919       0.31570       0.34109      12.09380      10.40130      24.79020       0.39266       3.82051  
    16.19790       5.38057       2.83482       2.93921      33.33220       2.81003       5.07352       0.23704       0.33123       9.90625      12.74150      23.62150       0.36250       3.74617  
    11.34300       0.70428       3.07547       3.45030      19.16590       2.06151       5.31477       0.16622       0.27885       6.50000       6.77209      20.97850       0.35404       3.54486  
     3.63629      -7.61750       3.57374       3.96335       3.45654       0.52906       6.51684       0.06840       0.09859       2.21875       1.83970      17.49430       0.38265       3.39366  
    -4.07795     -15.73470       3.43622       3.62800       1.45349       0.24952       6.95770       0.04600       0.10638       1.46875       1.20403      12.93300       0.48157       3.40641  
    -9.37345     -21.20510       3.38594       3.90715       2.39891       0.29875       4.76743       0.06961       0.20000       2.50000       1.05804      10.50330       0.56912       3.22460  
376n966e                       37.62360      96.56250    4363.00000        32  
 tmp_max_ave   tmp_min_ave    tmp_max_sd    tmp_min_sd       pcp_ave        pcp_sd      pcp_skew       wet_dry       wet_wet      pcp_days       pcp_hhr       slr_ave       dew_ave       wnd_ave  
   -11.30320     -24.80190       3.30976       4.70475       4.19068       0.44078       4.27488       0.11071       0.19672       3.81250       1.41312      11.82150       0.61474       2.86946  
    -8.02765     -21.73710       3.73455       5.03329       5.62061       0.64742       4.90033       0.11367       0.21488       3.78125       2.45132      15.69390       0.58971       3.29092  
    -1.85242     -14.60730       4.40486       4.98419      10.12580       0.95815       4.60209       0.14742       0.24157       5.56250       3.54961      20.67420       0.46287       4.35587  
     4.65742      -7.63015       4.04462       4.04980      14.97110       1.68373       6.07909       0.15885       0.26562       6.00000       6.37945      25.48020       0.37229       4.65284  
     9.85434      -1.45817       3.52560       3.34538      28.04680       2.29454       3.98579       0.22316       0.30742       8.84375       8.86142      27.28280       0.36161       4.25409  
    13.73930       3.50936       2.97282       2.74430      51.63430       3.80090       3.61316       0.31794       0.35264      12.40620       9.48536      26.22890       0.39312       3.76139  
    16.43970       6.36168       3.21544       2.67907      54.66030       3.95969       3.91358       0.33563       0.35036      12.84380      12.53720      24.55040       0.40842       3.60949  
    16.08170       5.37273       2.84122       2.88702      36.60540       3.03840       4.97931       0.25943       0.32827      10.28120      12.41340      23.38740       0.37711       3.53371  
    11.26240       0.74668       3.07631       3.38670      20.54840       2.20049       5.43998       0.16801       0.28241       6.75000       7.16772      20.80340       0.36808       3.32485  
     3.55537      -7.47327       3.54151       3.97729       4.07749       0.60188       6.97181       0.07667       0.10127       2.46875       2.56548      17.42830       0.39518       3.07581  
    -4.15040     -15.87920       3.40125       3.62194       1.69148       0.28024       6.69940       0.04840       0.11765       1.59375       1.32299      12.88710       0.49193       3.03819  
    -9.40290     -21.30390       3.36526       3.73564       2.70273       0.32001       4.68579       0.07469       0.21591       2.75000       1.26351      10.44950       0.57239       2.88649  
376n969e                       37.62360      96.87500    3553.00000        32  
 tmp_max_ave   tmp_min_ave    tmp_max_sd    tmp_min_sd       pcp_ave        pcp_sd      pcp_skew       wet_dry       wet_wet      pcp_days       pcp_hhr       slr_ave       dew_ave       wnd_ave  
   -11.39190     -24.99540       3.32036       4.67082       5.06740       0.48962       3.88375       0.13764       0.16312       4.40625       1.51285      11.75540       0.62294       2.59165  
    -8.08506     -21.84360       3.73848       5.04648       7.13446       0.72693       4.42648       0.14286       0.21290       4.84375       2.62076      15.57610       0.60083       3.00809  
    -1.84703     -14.73930       4.38709       5.10294      12.32390       1.07727       4.14705       0.16182       0.27861       6.28125       3.89929      20.43990       0.47175       4.05984  
     4.62128      -7.64639       4.02096       4.15455      17.92410       1.81962       5.58914       0.17116       0.30734       6.81250       6.60896      25.20500       0.38094       4.41298  
     9.70895      -1.50662       3.53592       3.37769      30.56180       2.43530       4.08700       0.24451       0.32467       9.62500       9.15101      27.06400       0.37776       4.10949  
    13.58590       3.44871       2.95810       2.71747      56.01380       4.03199       3.80407       0.35874       0.35308      13.18750      12.09440      26.05210       0.41063       3.66595  
    16.25530       6.29595       3.24874       2.64668      60.51290       4.35804       4.29331       0.34103       0.35664      13.40620      17.12140      24.26160       0.42648       3.52232  
    15.91830       5.35083       2.87676       2.86855      41.73580       3.35451       5.00907       0.29068       0.34540      11.21880      14.93690      23.11980       0.39545       3.44266  
    11.11560       0.80038       3.10199       3.34375      22.29780       2.29813       5.34349       0.17033       0.31034       7.25000       8.08457      20.64530       0.38649       3.21516  
     3.40413      -7.33279       3.51903       4.11132       5.48362       0.73455       7.07033       0.09764       0.11881       3.15625       3.46550      17.34740       0.41158       2.88132  
    -4.30075     -16.04260       3.38036       3.62586       2.23844       0.34192       5.97248       0.05322       0.15517       1.81250       1.41191      12.81560       0.50437       2.74436  
    -9.54041     -21.47620       3.34244       3.68245       3.50518       0.37607       4.28609       0.09215       0.20755       3.31250       1.48461      10.38350       0.57989       2.58336  
376n972e                       37.62360      97.18750    4158.00000        32  
 tmp_max_ave   tmp_min_ave    tmp_max_sd    tmp_min_sd       pcp_ave        pcp_sd      pcp_skew       wet_dry       wet_wet      pcp_days       pcp_hhr       slr_ave       dew_ave       wnd_ave  
   -11.89870     -25.49690       3.34369       4.90862       7.22952       0.59268       3.31757       0.16925       0.22872       5.87500       1.67027      11.72660       0.63852       2.49076  
    -8.58947     -22.49190       3.77140       5.45812      10.39660       0.89771       3.69742       0.18965       0.25481       6.50000       2.88572      15.52770       0.61987       2.92814  
    -2.36022     -15.39310       4.41793       5.43353      17.12670       1.32440       3.60059       0.19215       0.29249       7.90625       4.32106      20.26270       0.49434       3.96077  
     4.10727      -8.06496       4.05289       4.40101      23.64370       2.02999       4.22484       0.21888       0.27969       8.15625       6.82826      24.96690       0.40165       4.34355  
     9.20518      -1.83931       3.59845       3.44636      37.62440       2.78644       3.80569       0.28281       0.32764      10.96880       9.15582      26.82400       0.40104       4.10931  
    13.13960       3.12493       2.95931       2.71394      67.88760       4.49666       3.58114       0.38703       0.38797      15.06250      13.86800      25.66020       0.43334       3.72639  
    15.77500       5.97646       3.30189       2.62107      75.53880       4.98773       4.21188       0.37773       0.37423      15.28120      21.35300      23.68780       0.45080       3.58975  
    15.44140       5.05379       2.93640       2.86734      52.96020       3.81903       4.12909       0.31588       0.34750      12.50000      14.70490      22.62450       0.41995       3.50279  
    10.64020       0.60693       3.17072       3.31239      27.40440       2.54388       4.90231       0.19651       0.35165       8.53125       8.27803      20.40890       0.41143       3.26088  
     2.92472      -7.55804       3.54428       4.52769       8.55544       0.97115       5.94058       0.11241       0.22464       4.31250       4.17506      17.25600       0.43502       2.89708  
    -4.83010     -16.50690       3.41952       3.92471       3.78312       0.47335       4.90322       0.08142       0.18182       2.75000       1.65224      12.75520       0.52378       2.68898  
   -10.07430     -21.96020       3.36543       3.95283       5.33136       0.49376       3.59712       0.11730       0.23404       4.40625       1.74477      10.33160       0.59501       2.50099  
376n975e                       37.62360      97.50000    3926.00000        32  
 tmp_max_ave   tmp_min_ave    tmp_max_sd    tmp_min_sd       pcp_ave        pcp_sd      pcp_skew       wet_dry       wet_wet      pcp_days       pcp_hhr       slr_ave       dew_ave       wnd_ave  
   -12.69610     -26.05780       3.28824       5.20982      10.72780       0.75437       2.81257       0.21818       0.29150       7.71875       1.89497      11.61940       0.65589       2.68562  
    -9.36845     -22.87470       3.74462       5.78789      15.85360       1.16070       3.03530       0.28889       0.23358       8.56250       3.10261      15.35090       0.63772       3.12721  