wetland.wet: written by SWAT+ editor v3.0.8 on 2025-11-17 21:10 for SWAT+ rev.61.0.1
      id  name                          init               hyd               rel               sed               nut  
       1  wet00179                  initwet1       hydwet00179           wetland           sedwet1           nutwet1  
       2  wet00286                  initwet1       hydwet00286           wetland           sedwet1           nutwet1  
       3  wet00287                  initwet1       hydwet00287           wetland           sedwet1           nutwet1  
       4  wet00324                  initwet1       hydwet00324           wetland           sedwet1           nutwet1  
       5  wet00325                  initwet1       hydwet00325           wetland           sedwet1           nutwet1  
       6  wet00352                  initwet1       hydwet00352           wetland           sedwet1           nutwet1  
       7  wet00353                  initwet1       hydwet00353           wetland           sedwet1           nutwet1  
       8  wet00354                  initwet1       hydwet00354           wetland           sedwet1           nutwet1  
       9  wet00361                  initwet1       hydwet00361           wetland           sedwet1           nutwet1  
      10  wet00362                  initwet1       hydwet00362           wetland           sedwet1           nutwet1  
      11  wet00363                  initwet1       hydwet00363           wetland           sedwet1           nutwet1  
      12  wet00364                  initwet1       hydwet00364           wetland           sedwet1           nutwet1  
      13  wet00365                  initwet1       hydwet00365           wetland           sedwet1           nutwet1  
      14  wet00392                  initwet1       hydwet00392           wetland           sedwet1           nutwet1  
      15  wet00393                  initwet1       hydwet00393           wetland           sedwet1           nutwet1  
      16  wet00394                  initwet1       hydwet00394           wetland           sedwet1           nutwet1  
      17  wet00403                  initwet1       hydwet00403           wetland           sedwet1           nutwet1  
      18  wet00518                  initwet1       hydwet00518           wetland           sedwet1           nutwet1  
      19  wet01155                  initwet1       hydwet01155           wetland           sedwet1           nutwet1  
      20  wet01156                  initwet1       hydwet01156           wetland           sedwet1           nutwet1  
      21  wet01699                  initwet1       hydwet01699           wetland           sedwet1           nutwet1  
      22  wet01830                  initwet1       hydwet01830           wetland           sedwet1           nutwet1  
      23  wet01831                  initwet1       hydwet01831           wetland           sedwet1           nutwet1  
      24  wet01832                  initwet1       hydwet01832           wetland           sedwet1           nutwet1  
      25  wet01833                  initwet1       hydwet01833           wetland           sedwet1           nutwet1  
      26  wet01834                  initwet1       hydwet01834           wetland           sedwet1           nutwet1  
      27  wet01835                  initwet1       hydwet01835           wetland           sedwet1           nutwet1  
      28  wet01836                  initwet1       hydwet01836           wetland           sedwet1           nutwet1  
      29  wet01837                  initwet1       hydwet01837           wetland           sedwet1           nutwet1  
      30  wet01838                  initwet1       hydwet01838           wetland           sedwet1           nutwet1  
      31  wet01839                  initwet1       hydwet01839           wetland           sedwet1           nutwet1  
      32  wet01876                  initwet1       hydwet01876           wetland           sedwet1           nutwet1  
      33  wet01877                  initwet1       hydwet01877           wetland           sedwet1           nutwet1  
      34  wet01905                  initwet1       hydwet01905           wetland           sedwet1           nutwet1  
      35  wet01906                  initwet1       hydwet01906           wetland           sedwet1           nutwet1  
      36  wet01907                  initwet1       hydwet01907           wetland           sedwet1           nutwet1  
      37  wet01908                  initwet1       hydwet01908           wetland           sedwet1           nutwet1  
      38  wet01910                  initwet1       hydwet01910           wetland           sedwet1           nutwet1  
      39  wet01911                  initwet1       hydwet01911           wetland           sedwet1           nutwet1  
      40  wet01932                  initwet1       hydwet01932           wetland           sedwet1           nutwet1  
      41  wet01933                  initwet1       hydwet01933           wetland           sedwet1           nutwet1  
      42  wet01934                  initwet1       hydwet01934           wetland           sedwet1           nutwet1  
      43  wet01947                  initwet1       hydwet01947           wetland           sedwet1           nutwet1  
      44  wet01981                  initwet1       hydwet01981           wetland           sedwet1           nutwet1  
      45  wet01995                  initwet1       hydwet01995           wetland           sedwet1           nutwet1  
      46  wet01996                  initwet1       hydwet01996           wetland           sedwet1           nutwet1  
      47  wet02152                  initwet1       hydwet02152           wetland           sedwet1           nutwet1  
      48  wet02153                  initwet1       hydwet02153           wetland           sedwet1           nutwet1  
      49  wet02154                  initwet1       hydwet02154           wetland           sedwet1           nutwet1  
      50  wet02155                  initwet1       hydwet02155           wetland           sedwet1           nutwet1  
      51  wet02156                  initwet1       hydwet02156           wetland           sedwet1           nutwet1  
      52  wet02157                  initwet1       hydwet02157           wetland           sedwet1           nutwet1  
      53  wet02158                  initwet1       hydwet02158           wetland           sedwet1           nutwet1  
      54  wet02159                  initwet1       hydwet02159           wetland           sedwet1           nutwet1  
      55  wet02160                  initwet1       hydwet02160           wetland           sedwet1           nutwet1  
      56  wet02300                  initwet1       hydwet02300           wetland           sedwet1           nutwet1  
      57  wet02301                  initwet1       hydwet02301           wetland           sedwet1           nutwet1  
      58  wet02302                  initwet1       hydwet02302           wetland           sedwet1           nutwet1  
      59  wet02372                  initwet1       hydwet02372           wetland           sedwet1           nutwet1  
      60  wet02373                  initwet1       hydwet02373           wetland           sedwet1           nutwet1  
      61  wet02470                  initwet1       hydwet02470           wetland           sedwet1           nutwet1  
      62  wet02471                  initwet1       hydwet02471           wetland           sedwet1           nutwet1  
      63  wet02472                  initwet1       hydwet02472           wetland           sedwet1           nutwet1  
      64  wet02506                  initwet1       hydwet02506           wetland           sedwet1           nutwet1  
      65  wet02507                  initwet1       hydwet02507           wetland           sedwet1           nutwet1  
      66  wet02508                  initwet1       hydwet02508           wetland           sedwet1           nutwet1  
      67  wet02509                  initwet1       hydwet02509           wetland           sedwet1           nutwet1  
      68  wet02510                  initwet1       hydwet02510           wetland           sedwet1           nutwet1  
      69  wet02511                  initwet1       hydwet02511           wetland           sedwet1           nutwet1  
      70  wet02595                  initwet1       hydwet02595           wetland           sedwet1           nutwet1  
      71  wet02596                  initwet1       hydwet02596           wetland           sedwet1           nutwet1  
      72  wet02639                  initwet1       hydwet02639           wetland           sedwet1           nutwet1  
      73  wet02640                  initwet1       hydwet02640           wetland           sedwet1           nutwet1  
      74  wet02758                  initwet1       hydwet02758           wetland           sedwet1           nutwet1  
      75  wet02759                  initwet1       hydwet02759           wetland           sedwet1           nutwet1  
      76  wet02760                  initwet1       hydwet02760           wetland           sedwet1           nutwet1  
      77  wet02761                  initwet1       hydwet02761           wetland           sedwet1           nutwet1  
      78  wet02762                  initwet1       hydwet02762           wetland           sedwet1           nutwet1  
      79  wet02790                  initwet1       hydwet02790           wetland           sedwet1           nutwet1  
      80  wet02791                  initwet1       hydwet02791           wetland           sedwet1           nutwet1  
      81  wet02859                  initwet1       hydwet02859           wetland           sedwet1           nutwet1  
      82  wet03062                  initwet1       hydwet03062           wetland           sedwet1           nutwet1  
      83  wet03240                  initwet1       hydwet03240           wetland           sedwet1           nutwet1  
      84  wet03241                  initwet1       hydwet03241           wetland           sedwet1           nutwet1  
      85  wet03242                  initwet1       hydwet03242           wetland           sedwet1           nutwet1  
      86  wet03396                  initwet1       hydwet03396           wetland           sedwet1           nutwet1  
      87  wet03397                  initwet1       hydwet03397           wetland           sedwet1           nutwet1  
      88  wet03398                  initwet1       hydwet03398           wetland           sedwet1           nutwet1  
      89  wet03464                  initwet1       hydwet03464           wetland           sedwet1           nutwet1  
      90  wet03465                  initwet1       hydwet03465           wetland           sedwet1           nutwet1  
      91  wet03466                  initwet1       hydwet03466           wetland           sedwet1           nutwet1  
      92  wet03687                  initwet1       hydwet03687           wetland           sedwet1           nutwet1  
      93  wet03688                  initwet1       hydwet03688           wetland           sedwet1           nutwet1  
      94  wet03689                  initwet1       hydwet03689           wetland           sedwet1           nutwet1  
      95  wet03797                  initwet1       hydwet03797           wetland           sedwet1           nutwet1  
      96  wet03848                  initwet1       hydwet03848           wetland           sedwet1           nutwet1  
      97  wet03849                  initwet1       hydwet03849           wetland           sedwet1           nutwet1  
      98  wet03850                  initwet1       hydwet03850           wetland           sedwet1           nutwet1  
      99  wet03851                  initwet1       hydwet03851           wetland           sedwet1           nutwet1  
     100  wet03852                  initwet1       hydwet03852           wetland           sedwet1           nutwet1  
     101  wet03947                  initwet1       hydwet03947           wetland           sedwet1           nutwet1  
     102  wet03948                  initwet1       hydwet03948           wetland           sedwet1           nutwet1  
     103  wet03949                  initwet1       hydwet03949           wetland           sedwet1           nutwet1  
     104  wet03950                  initwet1       hydwet03950           wetland           sedwet1           nutwet1  
     105  wet03951                  initwet1       hydwet03951           wetland           sedwet1           nutwet1  
     106  wet03952                  initwet1       hydwet03952           wetland           sedwet1           nutwet1  
     107  wet03953                  initwet1       hydwet03953           wetland           sedwet1           nutwet1  
     108  wet03954                  initwet1       hydwet03954           wetland           sedwet1           nutwet1  
     109  wet03955                  initwet1       hydwet03955           wetland           sedwet1           nutwet1  
     110  wet04060                  initwet1       hydwet04060           wetland           sedwet1           nutwet1  
     111  wet04061                  initwet1       hydwet04061           wetland           sedwet1           nutwet1  
     112  wet04062                  initwet1       hydwet04062           wetland           sedwet1           nutwet1  
     113  wet04063                  initwet1       hydwet04063           wetland           sedwet1           nutwet1  
     114  wet04110                  initwet1       hydwet04110           wetland           sedwet1           nutwet1  
     115  wet04111                  initwet1       hydwet04111           wetland           sedwet1           nutwet1  
     116  wet04112                  initwet1       hydwet04112           wetland           sedwet1           nutwet1  
     117  wet04113                  initwet1       hydwet04113           wetland           sedwet1           nutwet1  
     118  wet04173                  initwet1       hydwet04173           wetland           sedwet1           nutwet1  
     119  wet04174                  initwet1       hydwet04174           wetland           sedwet1           nutwet1  
     120  wet04175                  initwet1       hydwet04175           wetland           sedwet1           nutwet1  
     121  wet04176                  initwet1       hydwet04176           wetland           sedwet1           nutwet1  
     122  wet04274                  initwet1       hydwet04274           wetland           sedwet1           nutwet1  
     123  wet04275                  initwet1       hydwet04275           wetland           sedwet1           nutwet1  
     124  wet04276                  initwet1       hydwet04276           wetland           sedwet1           nutwet1  
     125  wet04277                  initwet1       hydwet04277           wetland           sedwet1           nutwet1  
     126  wet04278                  initwet1       hydwet04278           wetland           sedwet1           nutwet1  
     127  wet04279                  initwet1       hydwet04279           wetland           sedwet1           nutwet1  
     128  wet04280                  initwet1       hydwet04280           wetland           sedwet1           nutwet1  
     129  wet04281                  initwet1       hydwet04281           wetland           sedwet1           nutwet1  
     130  wet04282                  initwet1       hydwet04282           wetland           sedwet1           nutwet1  
     131  wet04340                  initwet1       hydwet04340           wetland           sedwet1           nutwet1  
     132  wet04341                  initwet1       hydwet04341           wetland           sedwet1           nutwet1  
     133  wet04342                  initwet1       hydwet04342           wetland           sedwet1           nutwet1  
     134  wet04343                  initwet1       hydwet04343           wetland           sedwet1           nutwet1  
     135  wet04344                  initwet1       hydwet04344           wetland           sedwet1           nutwet1  
     136  wet04345                  initwet1       hydwet04345           wetland           sedwet1           nutwet1  
     137  wet04381                  initwet1       hydwet04381           wetland           sedwet1           nutwet1  
     138  wet04605                  initwet1       hydwet04605           wetland           sedwet1           nutwet1  
     139  wet04606                  initwet1       hydwet04606           wetland           sedwet1           nutwet1  
     140  wet04607                  initwet1       hydwet04607           wetland           sedwet1           nutwet1  
     141  wet04608                  initwet1       hydwet04608           wetland           sedwet1           nutwet1  
     142  wet04609                  initwet1       hydwet04609           wetland           sedwet1           nutwet1  
     143  wet04610                  initwet1       hydwet04610           wetland           sedwet1           nutwet1  
     144  wet04611                  initwet1       hydwet04611           wetland           sedwet1           nutwet1  
     145  wet04615                  initwet1       hydwet04615           wetland           sedwet1           nutwet1  
     146  wet04616                  initwet1       hydwet04616           wetland           sedwet1           nutwet1  
     147  wet04617                  initwet1       hydwet04617           wetland           sedwet1           nutwet1  
     148  wet04664                  initwet1       hydwet04664           wetland           sedwet1           nutwet1  
     149  wet04665                  initwet1       hydwet04665           wetland           sedwet1           nutwet1  
     150  wet04666                  initwet1       hydwet04666           wetland           sedwet1           nutwet1  
     151  wet04667                  initwet1       hydwet04667           wetland           sedwet1           nutwet1  
     152  wet04668                  initwet1       hydwet04668           wetland           sedwet1           nutwet1  
     153  wet04669                  initwet1       hydwet04669           wetland           sedwet1           nutwet1  
     154  wet04670                  initwet1       hydwet04670           wetland           sedwet1           nutwet1  
     155  wet04671                  initwet1       hydwet04671           wetland           sedwet1           nutwet1  
     156  wet04697                  initwet1       hydwet04697           wetland           sedwet1           nutwet1  
     157  wet04698                  initwet1       hydwet04698           wetland           sedwet1           nutwet1  
     158  wet04699                  initwet1       hydwet04699           wetland           sedwet1           nutwet1  
     159  wet04700                  initwet1       hydwet04700           wetland           sedwet1           nutwet1  
     160  wet04701                  initwet1       hydwet04701           wetland           sedwet1           nutwet1  
     161  wet04742                  initwet1       hydwet04742           wetland           sedwet1           nutwet1  
     162  wet04743                  initwet1       hydwet04743           wetland           sedwet1           nutwet1  
     163  wet04744                  initwet1       hydwet04744           wetland           sedwet1           nutwet1  
     164  wet04745                  initwet1       hydwet04745           wetland           sedwet1           nutwet1  
     165  wet04746                  initwet1       hydwet04746           wetland           sedwet1           nutwet1  
     166  wet04800                  initwet1       hydwet04800           wetland           sedwet1           nutwet1  
     167  wet04881                  initwet1       hydwet04881           wetland           sedwet1           nutwet1  
     168  wet04882                  initwet1       hydwet04882           wetland           sedwet1           nutwet1  
     169  wet05019                  initwet1       hydwet05019           wetland           sedwet1           nutwet1  
     170  wet05020                  initwet1       hydwet05020           wetland           sedwet1           nutwet1  
     171  wet05021                  initwet1       hydwet05021           wetland           sedwet1           nutwet1  
     172  wet05022                  initwet1       hydwet05022           wetland           sedwet1           nutwet1  
     173  wet05023                  initwet1       hydwet05023           wetland           sedwet1           nutwet1  
     174  wet05024                  initwet1       hydwet05024           wetland           sedwet1           nutwet1  
     175  wet05025                  initwet1       hydwet05025           wetland           sedwet1           nutwet1  
     176  wet05026                  initwet1       hydwet05026           wetland           sedwet1           nutwet1  
     177  wet05102                  initwet1       hydwet05102           wetland           sedwet1           nutwet1  
     178  wet05103                  initwet1       hydwet05103           wetland           sedwet1           nutwet1  
     179  wet05104                  initwet1       hydwet05104           wetland           sedwet1           nutwet1  
     180  wet05105                  initwet1       hydwet05105           wetland           sedwet1           nutwet1  
     181  wet05106                  initwet1       hydwet05106           wetland           sedwet1           nutwet1  
     182  wet05107                  initwet1       hydwet05107           wetland           sedwet1           nutwet1  
     183  wet05108                  initwet1       hydwet05108           wetland           sedwet1           nutwet1  
     184  wet05109                  initwet1       hydwet05109           wetland           sedwet1           nutwet1  
     185  wet05110                  initwet1       hydwet05110           wetland           sedwet1           nutwet1  
     186  wet05111                  initwet1       hydwet05111           wetland           sedwet1           nutwet1  
     187  wet05359                  initwet1       hydwet05359           wetland           sedwet1           nutwet1  
     188  wet05360                  initwet1       hydwet05360           wetland           sedwet1           nutwet1  
     189  wet05361                  initwet1       hydwet05361           wetland           sedwet1           nutwet1  
     190  wet05362                  initwet1       hydwet05362           wetland           sedwet1           nutwet1  
     191  wet05438                  initwet1       hydwet05438           wetland           sedwet1           nutwet1  
     192  wet05439                  initwet1       hydwet05439           wetland           sedwet1           nutwet1  
     193  wet05440                  initwet1       hydwet05440           wetland           sedwet1           nutwet1  
     194  wet05576                  initwet1       hydwet05576           wetland           sedwet1           nutwet1  
     195  wet05577                  initwet1       hydwet05577           wetland           sedwet1           nutwet1  
     196  wet05578                  initwet1       hydwet05578           wetland           sedwet1           nutwet1  
     197  wet05579                  initwet1       hydwet05579           wetland           sedwet1           nutwet1  
     198  wet05580                  initwet1       hydwet05580           wetland           sedwet1           nutwet1  
     199  wet05581                  initwet1       hydwet05581           wetland           sedwet1           nutwet1  
     200  wet05582                  initwet1       hydwet05582           wetland           sedwet1           nutwet1  
     201  wet05583                  initwet1       hydwet05583           wetland           sedwet1           nutwet1  
     202  wet05584                  initwet1       hydwet05584           wetland           sedwet1           nutwet1  
     203  wet05601                  initwet1       hydwet05601           wetland           sedwet1           nutwet1  
     204  wet05602                  initwet1       hydwet05602           wetland           sedwet1           nutwet1  
     205  wet05603                  initwet1       hydwet05603           wetland           sedwet1           nutwet1  
     206  wet05604                  initwet1       hydwet05604           wetland           sedwet1           nutwet1  
     207  wet05662                  initwet1       hydwet05662           wetland           sedwet1           nutwet1  
     208  wet05663                  initwet1       hydwet05663           wetland           sedwet1           nutwet1  
     209  wet05664                  initwet1       hydwet05664           wetland           sedwet1           nutwet1  
     210  wet05665                  initwet1       hydwet05665           wetland           sedwet1           nutwet1  
     211  wet05717                  initwet1       hydwet05717           wetland           sedwet1           nutwet1  
     212  wet05718                  initwet1       hydwet05718           wetland           sedwet1           nutwet1  
     213  wet05719                  initwet1       hydwet05719           wetland           sedwet1           nutwet1  
     214  wet05720                  initwet1       hydwet05720           wetland           sedwet1           nutwet1  
     215  wet05721                  initwet1       hydwet05721           wetland           sedwet1           nutwet1  
     216  wet05722                  initwet1       hydwet05722           wetland           sedwet1           nutwet1  
     217  wet05723                  initwet1       hydwet05723           wetland           sedwet1           nutwet1  
     218  wet05724                  initwet1       hydwet05724           wetland           sedwet1           nutwet1  
     219  wet05776                  initwet1       hydwet05776           wetland           sedwet1           nutwet1  
     220  wet06043                  initwet1       hydwet06043           wetland           sedwet1           nutwet1  
     221  wet06044                  initwet1       hydwet06044           wetland           sedwet1           nutwet1  
     222  wet06045                  initwet1       hydwet06045           wetland           sedwet1           nutwet1  
     223  wet06046                  initwet1       hydwet06046           wetland           sedwet1           nutwet1  
     224  wet06047                  initwet1       hydwet06047           wetland           sedwet1           nutwet1  
     225  wet06048                  initwet1       hydwet06048           wetland           sedwet1           nutwet1  
     226  wet06049                  initwet1       hydwet06049           wetland           sedwet1           nutwet1  
     227  wet06050                  initwet1       hydwet06050           wetland           sedwet1           nutwet1  
     228  wet06051                  initwet1       hydwet06051           wetland           sedwet1           nutwet1  
     229  wet06052                  initwet1       hydwet06052           wetland           sedwet1           nutwet1  
     230  wet06053                  initwet1       hydwet06053           wetland           sedwet1           nutwet1  
     231  wet06054                  initwet1       hydwet06054           wetland           sedwet1           nutwet1  
     232  wet06113                  initwet1       hydwet06113           wetland           sedwet1           nutwet1  
     233  wet06114                  initwet1       hydwet06114           wetland           sedwet1           nutwet1  
     234  wet06115                  initwet1       hydwet06115           wetland           sedwet1           nutwet1  
     235  wet06116                  initwet1       hydwet06116           wetland           sedwet1           nutwet1  
     236  wet06117                  initwet1       hydwet06117           wetland           sedwet1           nutwet1  
     237  wet06118                  initwet1       hydwet06118           wetland           sedwet1           nutwet1  
     238  wet06119                  initwet1       hydwet06119           wetland           sedwet1           nutwet1  
     239  wet06120                  initwet1       hydwet06120           wetland           sedwet1           nutwet1  
     240  wet06121                  initwet1       hydwet06121           wetland           sedwet1           nutwet1  
     241  wet06122                  initwet1       hydwet06122           wetland           sedwet1           nutwet1  
     242  wet06123                  initwet1       hydwet06123           wetland           sedwet1           nutwet1  
     243  wet06124                  initwet1       hydwet06124           wetland           sedwet1           nutwet1  
     244  wet06125                  initwet1       hydwet06125           wetland           sedwet1           nutwet1  
     245  wet06126                  initwet1       hydwet06126           wetland           sedwet1           nutwet1  
     246  wet06285                  initwet1       hydwet06285           wetland           sedwet1           nutwet1  
     247  wet06286                  initwet1       hydwet06286           wetland           sedwet1           nutwet1  
     248  wet06287                  initwet1       hydwet06287           wetland           sedwet1           nutwet1  