aquifer.con: written by SWAT+ editor v2.3.1 on 2023-08-15 15:10 for SWAT+ rev.60.5.7
      id  name                gis_id          area           lat           lon          elev       aqu               wst       cst      ovfl      rule   out_tot       obj_typ    obj_id       hyd_typ          frac
       1  aqu011                  11      35.19000     -31.46832     -52.66357     303.00000         1     s31470s52660w         0         0         0         2           sdc        46           tot       1.00000           aqu       119           rhg       1.00000
       2  aqu012                  12     115.29000     -31.46832     -52.66357     324.86339         2     s31470s52660w         0         0         0         2           aqu         1           tot       1.00000           aqu       119           rhg       1.00000
       3  aqu021                  21      27.45000     -31.46997     -52.67398     316.00000         3     s31470s52670w         0         0         0         2           sdc        51           tot       1.00000           aqu       119           rhg       1.00000
       4  aqu022                  22     105.03000     -31.46997     -52.67398     324.50386         4     s31470s52670w         0         0         0         2           aqu         3           tot       1.00000           aqu       119           rhg       1.00000
       5  aqu031                  31     151.11000     -31.48493     -52.68231     257.00000         5     s31490s52680w         0         0         0         2           sdc        33           tot       1.00000           aqu       119           rhg       1.00000
       6  aqu032                  32     363.15000     -31.48493     -52.68231     293.98067         6     s31490s52680w         0         0         0         2           aqu         5           tot       1.00000           aqu       119           rhg       1.00000
       7  aqu041                  41      37.80000     -31.47903     -52.65571     297.00000         7     s31480s52660w         0         0         0         2           sdc        53           tot       1.00000           aqu       119           rhg       1.00000
       8  aqu042                  42      92.34000     -31.47903     -52.65571     310.59942         8     s31480s52660w         0         0         0         2           aqu         7           tot       1.00000           aqu       119           rhg       1.00000
       9  aqu051                  51      36.18000     -31.47884     -52.66797     271.00000         9     s31480s52670w         0         0         0         2           sdc        35           tot       1.00000           aqu       119           rhg       1.00000
      10  aqu052                  52      78.21000     -31.47884     -52.66797     293.52129        10     s31480s52670w         0         0         0         2           aqu         9           tot       1.00000           aqu       119           rhg       1.00000
      11  aqu061                  61     107.55000     -31.48801     -52.64383     240.00000        11     s31490s52640w         0         0         0         2           sdc        39           tot       1.00000           aqu       119           rhg       1.00000
      12  aqu062                  62     263.79000     -31.48801     -52.64383     271.21256        12     s31490s52640w         0         0         0         2           aqu        11           tot       1.00000           aqu       119           rhg       1.00000
      13  aqu071                  71     140.13000     -31.49768     -52.66047     259.00000        13     s31500s52660w         0         0         0         2           sdc       185           tot       1.00000           aqu       119           rhg       1.00000
      14  aqu072                  72     332.55000     -31.49768     -52.66047     264.98809        14     s31500s52660w         0         0         0         2           aqu        13           tot       1.00000           aqu       119           rhg       1.00000
      15  aqu081                  81     124.38000     -31.49657     -52.62623     266.00000        15     s31500s52630w         0         0         0         2           sdc         6           tot       1.00000           aqu       119           rhg       1.00000
      16  aqu082                  82     269.19000     -31.49657     -52.62623     271.30458        16     s31500s52630w         0         0         0         2           aqu        15           tot       1.00000           aqu       119           rhg       1.00000
      17  aqu091                  91      27.18000     -31.49418     -52.69880     287.00000        17     s31490s52700w         0         0         0         2           sdc        57           tot       1.00000           aqu       119           rhg       1.00000
      18  aqu092                  92     103.41000     -31.49418     -52.69880     302.91645        18     s31490s52700w         0         0         0         2           aqu        17           tot       1.00000           aqu       119           rhg       1.00000
      19  aqu101                 101      55.35000     -31.49849     -52.68541     261.00000        19     s31500s52690w         0         0         0         2           sdc         9           tot       1.00000           aqu       119           rhg       1.00000
      20  aqu102                 102     105.84000     -31.49849     -52.68541     273.76105        20     s31500s52690w         0         0         0         2           aqu        19           tot       1.00000           aqu       119           rhg       1.00000
      21  aqu111                 111      14.04000     -31.50012     -52.64770     228.00000        21     s31500s52650w         0         0         0         2           sdc         4           tot       1.00000           aqu       119           rhg       1.00000
      22  aqu112                 112      21.78000     -31.50012     -52.64770     238.41736        22     s31500s52650w         0         0         0         2           aqu        21           tot       1.00000           aqu       119           rhg       1.00000
      23  aqu121                 121      16.47000     -31.50021     -52.69202     258.00000        23     s31500s52690w         0         0         0         2           sdc        15           tot       1.00000           aqu       119           rhg       1.00000
      24  aqu122                 122      25.29000     -31.50021     -52.69202     273.87900        24     s31500s52690w         0         0         0         2           aqu        23           tot       1.00000           aqu       119           rhg       1.00000
      25  aqu131                 131      71.55000     -31.50545     -52.63359     241.00000        25     s31510s52630w         0         0         0         2           sdc         1           tot       1.00000           aqu       119           rhg       1.00000
      26  aqu132                 132     133.02000     -31.50545     -52.63359     273.33491        26     s31510s52630w         0         0         0         2           aqu        25           tot       1.00000           aqu       119           rhg       1.00000
      27  aqu141                 141     161.55000     -31.51451     -52.66696     228.00000        27     s31520s52670w         0         0         0         2           sdc       180           tot       1.00000           aqu       119           rhg       1.00000
      28  aqu142                 142     301.05000     -31.51451     -52.66696     265.70463        28     s31520s52670w         0         0         0         2           aqu        27           tot       1.00000           aqu       119           rhg       1.00000
      29  aqu151                 151      28.17000     -31.50530     -52.70142     281.00000        29     s31510s52700w         0         0         0         2           sdc        17           tot       1.00000           aqu       119           rhg       1.00000
      30  aqu152                 152      73.89000     -31.50530     -52.70142     299.22168        30     s31510s52700w         0         0         0         2           aqu        29           tot       1.00000           aqu       119           rhg       1.00000
      31  aqu161                 161      44.82000     -31.51343     -52.68234     254.00000        31     s31510s52680w         0         0         0         2           sdc        18           tot       1.00000           aqu       119           rhg       1.00000
      32  aqu162                 162     126.54000     -31.51343     -52.68234     281.83926        32     s31510s52680w         0         0         0         2           aqu        31           tot       1.00000           aqu       119           rhg       1.00000
      33  aqu171                 171      42.39000     -31.50865     -52.64476     213.00000        33     s31510s52650w         0         0         0         2           sdc       175           tot       1.00000           aqu       119           rhg       1.00000
      34  aqu172                 172      57.69000     -31.50865     -52.64476     247.53354        34     s31510s52650w         0         0         0         2           aqu        33           tot       1.00000           aqu       119           rhg       1.00000
      35  aqu181                 181     103.50000     -31.51452     -52.69603     279.00000        35     s31510s52700w         0         0         0         2           sdc        20           tot       1.00000           aqu       119           rhg       1.00000
      36  aqu182                 182     236.16000     -31.51452     -52.69603     295.54383        36     s31510s52700w         0         0         0         2           aqu        35           tot       1.00000           aqu       119           rhg       1.00000
      37  aqu191                 191      72.81000     -31.51885     -52.63365     252.00000        37     s31520s52630w         0         0         0         2           sdc       234           tot       1.00000           aqu       119           rhg       1.00000
      38  aqu192                 192     145.71000     -31.51885     -52.63365     276.85114        38     s31520s52630w         0         0         0         2           aqu        37           tot       1.00000           aqu       119           rhg       1.00000
      39  aqu201                 201      39.87000     -31.51671     -52.64700     186.01787        39     s31520s52650w         0         0         0         2           sdc       171           tot       1.00000           aqu       119           rhg       1.00000
      40  aqu202                 202      69.39000     -31.51671     -52.64700     236.60571        40     s31520s52650w         0         0         0         2           aqu        39           tot       1.00000           aqu       119           rhg       1.00000
      41  aqu211                 211      33.66000     -31.52639     -52.64788     199.00000        41     s31530s52650w         0         0         0         2           sdc       169           tot       1.00000           aqu       119           rhg       1.00000
      42  aqu212                 212      67.23000     -31.52639     -52.64788     230.40428        42     s31530s52650w         0         0         0         2           aqu        41           tot       1.00000           aqu       119           rhg       1.00000
      43  aqu221                 221      52.56000     -31.52989     -52.65830     250.00000        43     s31530s52660w         0         0         0         2           sdc       247           tot       1.00000           aqu       119           rhg       1.00000
      44  aqu222                 222     168.93000     -31.52989     -52.65830     266.47363        44     s31530s52660w         0         0         0         2           aqu        43           tot       1.00000           aqu       119           rhg       1.00000
      45  aqu231                 231      54.54000     -31.53055     -52.67512     283.00000        45     s31530s52680w         0         0         0         2           sdc       232           tot       1.00000           aqu       119           rhg       1.00000
      46  aqu232                 232     164.43000     -31.53055     -52.67512     286.90476        46     s31530s52680w         0         0         0         2           aqu        45           tot       1.00000           aqu       119           rhg       1.00000
      47  aqu241                 241      51.93000     -31.53110     -52.63817     179.07237        47     s31530s52640w         0         0         0         2           sdc       166           tot       1.00000           aqu       119           rhg       1.00000
      48  aqu242                 242      89.82000     -31.53110     -52.63817     225.27255        48     s31530s52640w         0         0         0         2           aqu        47           tot       1.00000           aqu       119           rhg       1.00000
      49  aqu251                 251      73.62000     -31.54101     -52.66017     205.00000        49     s31540s52660w         0         0         0         2           sdc       224           tot       1.00000           aqu       119           rhg       1.00000
      50  aqu252                 252     163.89000     -31.54101     -52.66017     248.18671        50     s31540s52660w         0         0         0         2           aqu        49           tot       1.00000           aqu       119           rhg       1.00000
      51  aqu261                 261      51.12000     -31.54156     -52.67611     255.00000        51     s31540s52680w         0         0         0         2           sdc       237           tot       1.00000           aqu       119           rhg       1.00000
      52  aqu262                 262     128.34000     -31.54156     -52.67611     285.76438        52     s31540s52680w         0         0         0         2           aqu        51           tot       1.00000           aqu       119           rhg       1.00000
      53  aqu271                 271      42.39000     -31.54480     -52.60557     157.00000        53     s31550s52610w         0         0         0         2           sdc       236           tot       1.00000           aqu       119           rhg       1.00000
      54  aqu272                 272     120.96000     -31.54480     -52.60557     182.85714        54     s31550s52610w         0         0         0         2           aqu        53           tot       1.00000           aqu       119           rhg       1.00000
      55  aqu281                 281      40.05000     -31.54650     -52.58645     162.00000        55     s31550s52590w         0         0         0         2           sdc       245           tot       1.00000           aqu       119           rhg       1.00000
      56  aqu282                 282      94.32000     -31.54650     -52.58645     165.28435        56     s31550s52590w         0         0         0         2           aqu        55           tot       1.00000           aqu       119           rhg       1.00000
      57  aqu291                 291      25.11000     -31.54897     -52.57344     135.00000        57     s31550s52580w         0         0         0         2           sdc       248           tot       1.00000           aqu       119           rhg       1.00000
      58  aqu292                 292      66.24000     -31.54897     -52.57344     153.27989        58     s31550s52580w         0         0         0         2           aqu        57           tot       1.00000           aqu       119           rhg       1.00000
      59  aqu301                 301      24.93000     -31.54854     -52.64830     188.00000        59     s31550s52650w         0         0         0         2           sdc       192           tot       1.00000           aqu       119           rhg       1.00000
      60  aqu302                 302      64.98000     -31.54854     -52.64830     215.67313        60     s31550s52650w         0         0         0         2           aqu        59           tot       1.00000           aqu       119           rhg       1.00000
      61  aqu311                 311      40.86000     -31.55283     -52.62142     153.00000        61     s31550s52620w         0         0         0         2           sdc       155           tot       1.00000           aqu       119           rhg       1.00000
      62  aqu312                 312     124.02000     -31.55283     -52.62142     182.27213        62     s31550s52620w         0         0         0         2           aqu        61           tot       1.00000           aqu       119           rhg       1.00000
      63  aqu321                 321      79.11000     -31.55371     -52.66435     245.00000        63     s31550s52660w         0         0         0         2           sdc       229           tot       1.00000           aqu       119           rhg       1.00000
      64  aqu322                 322     182.43000     -31.55371     -52.66435     263.04637        64     s31550s52660w         0         0         0         2           aqu        63           tot       1.00000           aqu       119           rhg       1.00000
      65  aqu331                 331      57.33000     -31.55599     -52.63895     192.00000        65     s31560s52640w         0         0         0         2           sdc       196           tot       1.00000           aqu       119           rhg       1.00000
      66  aqu332                 332     122.76000     -31.55599     -52.63895     229.13270        66     s31560s52640w         0         0         0         2           aqu        65           tot       1.00000           aqu       119           rhg       1.00000
      67  aqu341                 341      46.53000     -31.55997     -52.65365     235.00000        67     s31560s52650w         0         0         0         2           sdc       199           tot       1.00000           aqu       119           rhg       1.00000
      68  aqu342                 342     137.07000     -31.55997     -52.65365     257.36638        68     s31560s52650w         0         0         0         2           aqu        67           tot       1.00000           aqu       119           rhg       1.00000
      69  aqu351                 351      34.20000     -31.56147     -52.63453     237.00000        69     s31560s52630w         0         0         0         2           sdc       197           tot       1.00000           aqu       119           rhg       1.00000
      70  aqu352                 352      90.45000     -31.56147     -52.63453     239.37512        70     s31560s52630w         0         0         0         2           aqu        69           tot       1.00000           aqu       119           rhg       1.00000
      71  aqu361                 361      50.04000     -31.55762     -52.56928      92.00000        71     s31560s52570w         0         0         0         2           sdc       137           tot       1.00000           aqu       119           rhg       1.00000
      72  aqu362                 362     145.35000     -31.55762     -52.56928     137.91827        72     s31560s52570w         0         0         0         2           aqu        71           tot       1.00000           aqu       119           rhg       1.00000
      73  aqu371                 371      26.55000     -31.55979     -52.55658      78.00000        73     s31560s52560w         0         0         0         2           sdc       135           tot       1.00000           aqu       119           rhg       1.00000
      74  aqu372                 372      46.80000     -31.55979     -52.55658      98.49808        74     s31560s52560w         0         0         0         2           aqu        73           tot       1.00000           aqu       119           rhg       1.00000
      75  aqu381                 381      36.18000     -31.56525     -52.58112     157.00000        75     s31570s52580w         0         0         0         2           sdc       203           tot       1.00000           aqu       119           rhg       1.00000
      76  aqu382                 382     105.48000     -31.56525     -52.58112     174.76621        76     s31570s52580w         0         0         0         2           aqu        75           tot       1.00000           aqu       119           rhg       1.00000
      77  aqu391                 391      16.11000     -31.56172     -52.54754      65.00000        77     s31560s52550w         0         0         0         2           sdc       132           tot       1.00000           aqu       119           rhg       1.00000
      78  aqu392                 392      22.05000     -31.56172     -52.54754      84.12653        78     s31560s52550w         0         0         0         2           aqu        77           tot       1.00000           aqu       119           rhg       1.00000
      79  aqu401                 401      25.47000     -31.56404     -52.61358     132.00000        79     s31560s52610w         0         0         0         2           sdc       217           tot       1.00000           aqu       119           rhg       1.00000
      80  aqu402                 402      36.63000     -31.56404     -52.61358     171.43735        80     s31560s52610w         0         0         0         2           aqu        79           tot       1.00000           aqu       119           rhg       1.00000
      81  aqu411                 411      24.03000     -31.56431     -52.62514     165.00000        81     s31560s52630w         0         0         0         2           sdc       456           tot       1.00000           aqu       119           rhg       1.00000
      82  aqu412                 412      95.40000     -31.56431     -52.62514     204.62830        82     s31560s52630w         0         0         0         2           aqu        81           tot       1.00000           aqu       119           rhg       1.00000
      83  aqu421                 421      34.11000     -31.56843     -52.57049     124.00000        83     s31570s52570w         0         0         0         2           sdc       218           tot       1.00000           aqu       119           rhg       1.00000
      84  aqu422                 422     116.01000     -31.56843     -52.57049     151.27308        84     s31570s52570w         0         0         0         2           aqu        83           tot       1.00000           aqu       119           rhg       1.00000
      85  aqu431                 431     104.04000     -31.57643     -52.60550     177.00000        85     s31580s52610w         0         0         0         2           sdc       428           tot       1.00000           aqu       119           rhg       1.00000
      86  aqu432                 432     274.68000     -31.57643     -52.60550     206.19463        86     s31580s52610w         0         0         0         2           aqu        85           tot       1.00000           aqu       119           rhg       1.00000
      87  aqu441                 441      38.52000     -31.56790     -52.59260     151.00523        87     s31570s52590w         0         0         0         2           sdc       450           tot       1.00000           aqu       119           rhg       1.00000
      88  aqu442                 442      67.59000     -31.56790     -52.59260     177.06924        88     s31570s52590w         0         0         0         2           aqu        87           tot       1.00000           aqu       119           rhg       1.00000
      89  aqu451                 451      54.54000     -31.57246     -52.61871     182.00000        89     s31570s52620w         0         0         0         2           sdc       423           tot       1.00000           aqu       119           rhg       1.00000
      90  aqu452                 452     134.46000     -31.57246     -52.61871     192.50402        90     s31570s52620w         0         0         0         2           aqu        89           tot       1.00000           aqu       119           rhg       1.00000
      91  aqu461                 461      26.55000     -31.57117     -52.64466     243.00000        91     s31570s52650w         0         0         0         2           sdc       448           tot       1.00000           aqu       119           rhg       1.00000
      92  aqu462                 462      80.10000     -31.57117     -52.64466     256.38090        92     s31570s52650w         0         0         0         2           aqu        91           tot       1.00000           aqu       119           rhg       1.00000
      93  aqu471                 471      34.47000     -31.57214     -52.63389     191.00000        93     s31570s52630w         0         0         0         2           sdc       432           tot       1.00000           aqu       119           rhg       1.00000
      94  aqu472                 472      79.02000     -31.57214     -52.63389     219.25626        94     s31570s52630w         0         0         0         2           aqu        93           tot       1.00000           aqu       119           rhg       1.00000
      95  aqu481                 481      43.74000     -31.57798     -52.65077     244.00000        95     s31580s52650w         0         0         0         2           sdc       449           tot       1.00000           aqu       119           rhg       1.00000
      96  aqu482                 482     138.33000     -31.57798     -52.65077     255.80286        96     s31580s52650w         0         0         0         2           aqu        95           tot       1.00000           aqu       119           rhg       1.00000
      97  aqu491                 491      99.99000     -31.58331     -52.59335     154.00000        97     s31580s52590w         0         0         0         2           sdc       426           tot       1.00000           aqu       119           rhg       1.00000
      98  aqu492                 492     322.74000     -31.58331     -52.59335     193.12381        98     s31580s52590w         0         0         0         2           aqu        97           tot       1.00000           aqu       119           rhg       1.00000
      99  aqu501                 501      58.14000     -31.58508     -52.62525     211.00000        99     s31590s52630w         0         0         0         2           sdc       444           tot       1.00000           aqu       119           rhg       1.00000
     100  aqu502                 502     186.57000     -31.58508     -52.62525     235.91076       100     s31590s52630w         0         0         0         2           aqu        99           tot       1.00000           aqu       119           rhg       1.00000
     101  aqu511                 511      65.16000     -31.58632     -52.57327     133.00000       101     s31590s52570w         0         0         0         2           sdc       408           tot       1.00000           aqu       119           rhg       1.00000
     102  aqu512                 512     138.42000     -31.58632     -52.57327     162.75943       102     s31590s52570w         0         0         0         2           aqu       101           tot       1.00000           aqu       119           rhg       1.00000
     103  aqu521                 521      15.30000     -31.57959     -52.63699     173.00740       103     s31580s52640w         0         0         0         2           sdc       437           tot       1.00000           aqu       119           rhg       1.00000
     104  aqu522                 522      31.32000     -31.57959     -52.63699     208.60632       104     s31580s52640w         0         0         0         2           aqu       103           tot       1.00000           aqu       119           rhg       1.00000
     105  aqu531                 531      35.37000     -31.58671     -52.64373     241.00000       105     s31590s52640w         0         0         0         2           sdc       454           tot       1.00000           aqu       119           rhg       1.00000
     106  aqu532                 532     110.70000     -31.58671     -52.64373     238.86341       106     s31590s52640w         0         0         0         2           aqu       105           tot       1.00000           aqu       119           rhg       1.00000
     107  aqu541                 541     100.35000     -31.59661     -52.59820     176.00000       107     s31600s52600w         0         0         0         2           sdc       431           tot       1.00000           aqu       119           rhg       1.00000
     108  aqu542                 542     286.29000     -31.59661     -52.59820     204.91041       108     s31600s52600w         0         0         0         2           aqu       107           tot       1.00000           aqu       119           rhg       1.00000
     109  aqu551                 551     222.03000     -31.60840     -52.58164     262.00000       109     s31610s52580w         0         0         0         2           sdc       414           tot       1.00000           aqu       119           rhg       1.00000
     110  aqu552                 552     373.86000     -31.60840     -52.58164     235.82282       110     s31610s52580w         0         0         0         2           aqu       109           tot       1.00000           aqu       119           rhg       1.00000
     111  aqu561                 561     118.53000     -31.54149     -52.63548     170.00000       111     s31540s52640w         0         0         0         2           sdc       159           tot       1.00000           aqu       119           rhg       1.00000