chandeg.con: written by SWAT+ editor v2.3.1 on 2023-08-15 15:10 for SWAT+ rev.60.5.7
      id  name                gis_id          area           lat           lon          elev      lcha               wst       cst      ovfl      rule   out_tot       obj_typ    obj_id       hyd_typ          frac
       1  cha001                   1     204.57000     -31.50335     -52.64489             0         1     s31500s52650w         0         0         0         1           sdc       177           tot       1.00000
       2  cha002                   2     170.73000     -31.50418     -52.64348             0         2     s31500s52650w         0         0         0         1           sdc         1           tot       1.00000
       3  cha003                   3     112.23000     -31.50443     -52.63464             0         3     s31500s52630w         0         0         0         1           sdc       179           tot       1.00000
       4  cha004                   4     800.73000     -31.50321     -52.64583             0         4     s31500s52650w         0         0         0         1           sdc       177           tot       1.00000
       5  cha005                   5     784.71000     -31.49997     -52.64514             0         5     s31500s52650w         0         0         0         1           sdc         4           tot       1.00000
       6  cha006                   6     393.57000     -31.49734     -52.64407             0         6     s31500s52650w         0         0         0         1           sdc         5           tot       1.00000
       7  cha007                   7     383.85000     -31.49746     -52.64020             0         7     s31490s52640w         0         0         0         1           sdc         6           tot       1.00000
       8  cha008                   8     310.86000     -31.49625     -52.63426             0         8     s31500s52630w         0         0         0         1           sdc         7           tot       1.00000
       9  cha009                   9     775.26000     -31.50117     -52.67754             0         9     s31510s52680w         0         0         0         1           sdc       189           tot       1.00000
      10  cha011                  11     221.49000     -31.49148     -52.62660             0        10     s31500s52630w         0         0         0         1           sdc         8           tot       1.00000
      11  cha012                  12     706.50000     -31.50040     -52.68447             0        11     s31500s52690w         0         0         0         1           sdc         9           tot       1.00000
      12  cha013                  13     197.55000     -31.49226     -52.62400             0        12     s31500s52630w         0         0         0         1           sdc        10           tot       1.00000
      13  cha015                  15     151.56000     -31.49360     -52.62482             0        13     s31500s52630w         0         0         0         1           sdc        12           tot       1.00000
      14  cha016                  16     126.27000     -31.49566     -52.62264             0        14     s31500s52630w         0         0         0         1           sdc        13           tot       1.00000
      15  cha017                  17     274.41000     -31.50046     -52.69063             0        15     s31500s52690w         0         0         0         1           sdc        11           tot       1.00000
      16  cha018                  18     100.98000     -31.49877     -52.62206             0        16     s31500s52630w         0         0         0         1           sdc        14           tot       1.00000
      17  cha019                  19     102.06000     -31.50106     -52.69649             0        17     s31500s52690w         0         0         0         1           sdc        15           tot       1.00000
      18  cha020                  20     171.36000     -31.50288     -52.67654             0        18     s31510s52680w         0         0         0         1           sdc       189           tot       1.00000
      19  cha021                  21      49.86000     -31.50110     -52.68275             0        19     s31500s52690w         0         0         0         1           sdc         9           tot       1.00000
      20  cha022                  22     339.66000     -31.50334     -52.68753             0        20     s31500s52690w         0         0         0         1           sdc        11           tot       1.00000
      21  cha023                  23     160.92000     -31.50832     -52.67956             0        21     s31510s52680w         0         0         0         1           sdc        18           tot       1.00000
      22  cha024                  24      58.77000     -31.50332     -52.69937             0        22     s31510s52700w         0         0         0         1           sdc        17           tot       1.00000
      23  cha025                  25      27.18000     -31.50454     -52.69923             0        23     s31510s52700w         0         0         0         1           sdc        17           tot       1.00000
      24  cha026                  26      15.21000     -31.50417     -52.68612             0        24     s31500s52690w         0         0         0         1           sdc        19           tot       1.00000
      25  cha027                  27      38.25000     -31.50368     -52.61962             0        25     s31500s52630w         0         0         0         1           sdc        16           tot       1.00000
      26  cha028                  28      21.78000     -31.50450     -52.66133             0        26     s31500s52660w         0         0         0         1           sdc       190           tot       1.00000
      27  cha029                  29      16.38000     -31.50426     -52.63748             0        27     s31500s52630w         0         0         0         1           sdc       179           tot       1.00000
      28  cha031                  31     805.77000     -31.50111     -52.66159             0        28     s31500s52660w         0         0         0         1           sdc       190           tot       1.00000
      29  cha032                  32     783.00000     -31.49940     -52.66274             0        29     s31500s52660w         0         0         0         1           sdc        28           tot       1.00000
      30  cha033                  33     755.64000     -31.49811     -52.66327             0        30     s31500s52660w         0         0         0         1           sdc        29           tot       1.00000
      31  cha034                  34     731.43000     -31.49405     -52.66304             0        31     s31500s52660w         0         0         0         1           sdc        30           tot       1.00000
      32  cha036                  36     661.68000     -31.48962     -52.66320             0        32     s31480s52660w         0         0         0         1           sdc        31           tot       1.00000
      33  cha038                  38     514.26000     -31.49993     -52.67420             0        33     s31490s52680w         0         0         0         1           sdc       189           tot       1.00000
      34  cha039                  39     487.98000     -31.49749     -52.67439             0        34     s31490s52680w         0         0         0         1           sdc        33           tot       1.00000
      35  cha041                  41     397.35000     -31.48133     -52.66313             0        35     s31480s52660w         0         0         0         1           sdc        32           tot       1.00000
      36  cha042                  42     463.23000     -31.49645     -52.67682             0        36     s31490s52680w         0         0         0         1           sdc        34           tot       1.00000
      37  cha043                  43     384.75000     -31.48104     -52.66455             0        37     s31480s52660w         0         0         0         1           sdc        35           tot       1.00000
      38  cha044                  44     362.88000     -31.47948     -52.66515             0        38     s31480s52670w         0         0         0         1           sdc        37           tot       1.00000
      39  cha045                  45     371.34000     -31.49606     -52.64428             0        39     s31500s52650w         0         0         0         1           sdc         5           tot       1.00000
      40  cha046                  46     414.00000     -31.49263     -52.67881             0        40     s31490s52680w         0         0         0         1           sdc        36           tot       1.00000
      41  cha047                  47     342.09000     -31.48006     -52.66737             0        41     s31480s52670w         0         0         0         1           sdc        38           tot       1.00000
      42  cha048                  48     317.16000     -31.47875     -52.66956             0        42     s31480s52670w         0         0         0         1           sdc        41           tot       1.00000
      43  cha049                  49     362.70000     -31.48849     -52.68007             0        43     s31490s52680w         0         0         0         1           sdc        40           tot       1.00000
      44  cha052                  52     318.51000     -31.48559     -52.68026             0        44     s31490s52680w         0         0         0         1           sdc        43           tot       1.00000
      45  cha053                  53     293.13000     -31.47720     -52.66906             0        45     s31480s52670w         0         0         0         1           sdc        42           tot       1.00000
      46  cha054                  54     150.48000     -31.47531     -52.66887             0        46     s31480s52670w         0         0         0         1           sdc        45           tot       1.00000
      47  cha055                  55     263.88000     -31.49140     -52.64357             0        47     s31490s52640w         0         0         0         1           sdc        39           tot       1.00000
      48  cha056                  56     247.50000     -31.49067     -52.64190             0        48     s31490s52640w         0         0         0         1           sdc        47           tot       1.00000
      49  cha057                  57     215.19000     -31.48958     -52.64259             0        49     s31490s52640w         0         0         0         1           sdc        48           tot       1.00000
      50  cha059                  59     192.51000     -31.48270     -52.68281             0        50     s31490s52680w         0         0         0         1           sdc        44           tot       1.00000
      51  cha060                  60     132.48000     -31.47448     -52.66980             0        51     s31470s52670w         0         0         0         1           sdc        45           tot       1.00000
      52  cha061                  61     114.75000     -31.47237     -52.67055             0        52     s31470s52670w         0         0         0         1           sdc        51           tot       1.00000
      53  cha062                  62     130.14000     -31.47988     -52.66082             0        53     s31480s52660w         0         0         0         1           sdc        32           tot       1.00000
      54  cha064                  64     178.74000     -31.48116     -52.68638             0        54     s31490s52680w         0         0         0         1           sdc        50           tot       1.00000
      55  cha065                  65     121.68000     -31.48000     -52.68269             0        55     s31490s52680w         0         0         0         1           sdc        54           tot       1.00000
      56  cha066                  66      97.11000     -31.47242     -52.67213             0        56     s31470s52670w         0         0         0         1           sdc        52           tot       1.00000
      57  cha067                  67     130.59000     -31.49889     -52.69676             0        57     s31500s52690w         0         0         0         1           sdc        15           tot       1.00000
      58  cha068                  68      70.56000     -31.48456     -52.68569             0        58     s31490s52680w         0         0         0         1           sdc        44           tot       1.00000
      59  cha069                  69     118.44000     -31.47183     -52.66549             0        59     s31470s52670w         0         0         0         1           sdc        46           tot       1.00000
      60  cha070                  70     103.05000     -31.47957     -52.68394             0        60     s31490s52680w         0         0         0         1           sdc        55           tot       1.00000
      61  cha071                  71      56.79000     -31.49568     -52.64712             0        61     s31500s52650w         0         0         0         1           sdc        39           tot       1.00000
      62  cha072                  72      75.24000     -31.49929     -52.68666             0        62     s31500s52690w         0         0         0         1           sdc        11           tot       1.00000
      63  cha073                  73      50.22000     -31.49014     -52.66250             0        63     s31500s52660w         0         0         0         1           sdc        32           tot       1.00000
      64  cha074                  74      82.80000     -31.48610     -52.64016             0        64     s31490s52640w         0         0         0         1           sdc        49           tot       1.00000
      65  cha075                  75      96.03000     -31.49710     -52.69894             0        65     s31490s52700w         0         0         0         1           sdc        57           tot       1.00000
      66  cha076                  76      73.80000     -31.47799     -52.68573             0        66     s31490s52680w         0         0         0         1           sdc        60           tot       1.00000
      67  cha077                  77      79.20000     -31.49602     -52.69892             0        67     s31490s52700w         0         0         0         1           sdc        65           tot       1.00000
      68  cha078                  78      68.22000     -31.48192     -52.65967             0        68     s31480s52660w         0         0         0         1           sdc        53           tot       1.00000
      69  cha079                  79      65.70000     -31.46768     -52.66242             0        69     s31470s52660w         0         0         0         1           sdc        59           tot       1.00000
      70  cha080                  80      58.68000     -31.48819     -52.64565             0        70     s31490s52640w         0         0         0         1           sdc        49           tot       1.00000
      71  cha081                  81      32.49000     -31.49849     -52.63398             0        71     s31500s52630w         0         0         0         1           sdc         8           tot       1.00000
      72  cha082                  82      68.13000     -31.49506     -52.69954             0        72     s31490s52700w         0         0         0         1           sdc        67           tot       1.00000
      73  cha083                  83      32.13000     -31.49293     -52.66128             0        73     s31500s52660w         0         0         0         1           sdc        31           tot       1.00000
      74  cha084                  84      41.22000     -31.48183     -52.65619             0        74     s31480s52660w         0         0         0         1           sdc        68           tot       1.00000
      75  cha085                  85      44.55000     -31.46503     -52.66284             0        75     s31470s52660w         0         0         0         1           sdc        69           tot       1.00000
      76  cha086                  86      32.22000     -31.50198     -52.61967             0        76     s31500s52630w         0         0         0         1           sdc        16           tot       1.00000
      77  cha089                  89      37.80000     -31.48790     -52.64738             0        77     s31490s52640w         0         0         0         1           sdc        70           tot       1.00000
      78  cha091                  91      45.90000     -31.48298     -52.64027             0        78     s31490s52640w         0         0         0         1           sdc        64           tot       1.00000
      79  cha092                  92      29.52000     -31.48056     -52.68885             0        79     s31490s52680w         0         0         0         1           sdc        54           tot       1.00000
      80  cha093                  93      43.47000     -31.49371     -52.69935             0        80     s31490s52700w         0         0         0         1           sdc        72           tot       1.00000
      81  cha094                  94      42.84000     -31.47658     -52.68531             0        81     s31490s52680w         0         0         0         1           sdc        66           tot       1.00000
      82  cha095                  95      45.54000     -31.46956     -52.67397             0        82     s31470s52670w         0         0         0         1           sdc        56           tot       1.00000
      83  cha096                  96      10.80000     -31.50322     -52.68610             0        83     s31500s52690w         0         0         0         1           sdc        19           tot       1.00000
      84  cha097                  97      17.01000     -31.50288     -52.61819             0        84     s31500s52630w         0         0         0         1           sdc        76           tot       1.00000
      85  cha099                  99      12.33000     -31.50244     -52.64266             0        85     s31500s52650w         0         0         0         1           sdc         1           tot       1.00000
      86  cha100                 100      13.59000     -31.50199     -52.64612             0        86     s31500s52650w         0         0         0         1           sdc         4           tot       1.00000
      87  cha102                 102      12.69000     -31.50161     -52.64375             0        87     s31500s52650w         0         0         0         1           sdc         1           tot       1.00000
      88  cha103                 103      10.89000     -31.50055     -52.66316             0        88     s31500s52660w         0         0         0         1           sdc        28           tot       1.00000
      89  cha104                 104      15.93000     -31.49944     -52.63360             0        89     s31500s52630w         0         0         0         1           sdc        71           tot       1.00000
      90  cha106                 106      13.50000     -31.49831     -52.69960             0        90     s31490s52700w         0         0         0         1           sdc        57           tot       1.00000
      91  cha109                 109      15.66000     -31.49590     -52.62486             0        91     s31500s52630w         0         0         0         1           sdc        13           tot       1.00000
      92  cha111                 111       9.27000     -31.49641     -52.69972             0        92     s31490s52700w         0         0         0         1           sdc        65           tot       1.00000
      93  cha113                 113      13.86000     -31.49661     -52.66435             0        93     s31500s52660w         0         0         0         1           sdc        30           tot       1.00000
      94  cha114                 114      33.48000     -31.49625     -52.64997             0        94     s31500s52650w         0         0         0         1           sdc        61           tot       1.00000
      95  cha115                 115      14.67000     -31.49699     -52.68646             0        95     s31500s52690w         0         0         0         1           sdc        62           tot       1.00000
      96  cha120                 120      11.25000     -31.49327     -52.66097             0        96     s31500s52660w         0         0         0         1           sdc        73           tot       1.00000
      97  cha121                 121      51.48000     -31.49534     -52.68849             0        97     s31500s52690w         0         0         0         1           sdc        62           tot       1.00000
      98  cha122                 122      10.80000     -31.49278     -52.69807             0        98     s31490s52700w         0         0         0         1           sdc        80           tot       1.00000
      99  cha123                 123      19.80000     -31.49345     -52.67835             0        99     s31490s52680w         0         0         0         1           sdc        36           tot       1.00000
     100  cha124                 124      14.94000     -31.49288     -52.70076             0       100     s31490s52700w         0         0         0         1           sdc        72           tot       1.00000
     101  cha125                 125      22.77000     -31.49223     -52.69854             0       101     s31490s52700w         0         0         0         1           sdc        80           tot       1.00000
     102  cha126                 126      43.56000     -31.49469     -52.63478             0       102     s31490s52640w         0         0         0         1           sdc         7           tot       1.00000
     103  cha128                 128      29.43000     -31.49209     -52.64753             0       103     s31490s52640w         0         0         0         1           sdc        39           tot       1.00000
     104  cha129                 129      18.45000     -31.49134     -52.66378             0       104     s31500s52660w         0         0         0         1           sdc        31           tot       1.00000
     105  cha133                 133      21.15000     -31.48907     -52.68206             0       105     s31490s52680w         0         0         0         1           sdc        43           tot       1.00000
     106  cha134                 134      18.72000     -31.49139     -52.62825             0       106     s31500s52630w         0         0         0         1           sdc         8           tot       1.00000
     107  cha135                 135      45.27000     -31.48900     -52.66642             0       107     s31480s52670w         0         0         0         1           sdc        32           tot       1.00000
     108  cha137                 137      27.54000     -31.48643     -52.68754             0       108     s31490s52680w         0         0         0         1           sdc        58           tot       1.00000
     109  cha138                 138      37.80000     -31.48950     -52.65964             0       109     s31480s52660w         0         0         0         1           sdc        63           tot       1.00000
     110  cha140                 140      30.60000     -31.48913     -52.67732             0       110     s31490s52680w         0         0         0         1           sdc        40           tot       1.00000
     111  cha141                 141      18.45000     -31.48815     -52.64841             0       111     s31490s52640w         0         0         0         1           sdc        77           tot       1.00000
     112  cha146                 146      55.80000     -31.48641     -52.63685             0       112     s31490s52640w         0         0         0         1           sdc        49           tot       1.00000
     113  cha149                 149      10.98000     -31.48250     -52.65652             0       113     s31480s52660w         0         0         0         1           sdc        68           tot       1.00000
     114  cha150                 150      11.88000     -31.48143     -52.66597             0       114     s31480s52670w         0         0         0         1           sdc        37           tot       1.00000
     115  cha153                 153      15.75000     -31.48147     -52.64213             0       115     s31490s52640w         0         0         0         1           sdc        78           tot       1.00000
     116  cha154                 154      23.58000     -31.48146     -52.65366             0       116     s31480s52660w         0         0         0         1           sdc        74           tot       1.00000
     117  cha156                 156      10.71000     -31.48130     -52.65524             0       117     s31480s52660w         0         0         0         1           sdc        74           tot       1.00000
     118  cha157                 157      20.97000     -31.48245     -52.63915             0       118     s31490s52640w         0         0         0         1           sdc        64           tot       1.00000
     119  cha159                 159      11.97000     -31.47990     -52.66942             0       119     s31480s52670w         0         0         0         1           sdc        41           tot       1.00000
     120  cha161                 161      20.79000     -31.48052     -52.64212             0       120     s31490s52640w         0         0         0         1           sdc        78           tot       1.00000
     121  cha166                 166      14.67000     -31.47701     -52.68326             0       121     s31490s52680w         0         0         0         1           sdc        60           tot       1.00000
     122  cha168                 168       9.90000     -31.47338     -52.67104             0       122     s31470s52670w         0         0         0         1           sdc        51           tot       1.00000
     123  cha169                 169      12.42000     -31.47414     -52.68527             0       123     s31470s52670w         0         0         0         1           sdc        81           tot       1.00000
     124  cha170                 170      19.71000     -31.47400     -52.68558             0       124     s31470s52670w         0         0         0         1           sdc        81           tot       1.00000
     125  cha171                 171      26.73000     -31.47317     -52.66630             0       125     s31470s52670w         0         0         0         1           sdc        46           tot       1.00000
     126  cha172                 172      38.88000     -31.47170     -52.67575             0       126     s31470s52670w         0         0         0         1           sdc        56           tot       1.00000
     127  cha174                 174      18.99000     -31.46864     -52.66117             0       127     s31470s52660w         0         0         0         1           sdc        59           tot       1.00000
     128  cha175                 175       9.36000     -31.46671     -52.67408             0       128     s31470s52670w         0         0         0         1           sdc        82           tot       1.00000
     129  cha176                 176      10.80000     -31.46647     -52.66176             0       129     s31470s52660w         0         0         0         1           sdc        69           tot       1.00000
     130  cha177                 177      11.70000     -31.46617     -52.67423             0       130     s31470s52670w         0         0         0         1           sdc        82           tot       1.00000
     131  cha178                 178      19.89000     -31.46522     -52.66427             0       131     s31470s52660w         0         0         0         1           sdc        75           tot       1.00000
     132  cha180                 180   12197.34000     -31.55995     -52.54474             0       132     s31560s52550w         0         0         0         0
     133  cha181                 181   12178.52960     -31.56087     -52.54681             0       133     s31560s52550w         0         0         0         1           sdc       132           tot       1.00000
     134  cha182                 182   12164.76000     -31.56071     -52.54870             0       134     s31560s52550w         0         0         0         1           sdc       133           tot       1.00000
     135  cha183                 183   10218.78000     -31.55918     -52.55231             0       135     s31560s52550w         0         0         0         1           sdc       134           tot       1.00000
     136  cha184                 184   10161.00000     -31.55924     -52.55848             0       136     s31560s52560w         0         0         0         1           sdc       135           tot       1.00000
     137  cha185                 185    9995.31040     -31.55826     -52.56146             0       137     s31560s52560w         0         0         0         1           sdc       136           tot       1.00000
     138  cha186                 186    9961.74000     -31.55619     -52.56475             0       138     s31560s52560w         0         0         0         1           sdc       137           tot       1.00000
     139  cha187                 187    9914.94000     -31.55680     -52.56966             0       139     s31560s52570w         0         0         0         1           sdc       138           tot       1.00000