hru.con: written by SWAT+ editor v2.3.1 on 2023-08-15 15:10 for SWAT+ rev.60.5.7
      id  name                gis_id          area           lat           lon          elev       hru               wst       cst      ovfl      rule   out_tot
       1  hru0001                  1       4.45059     -31.46464     -52.66687     340.35897         1     s31470s52670w         0         0         0         0
       2  hru0002                  2       5.36353     -31.46538     -52.66641     337.10638         2     s31470s52670w         0         0         0         0
       3  hru0003                  3       4.90706     -31.46434     -52.66814     347.83721         3     s31470s52670w         0         0         0         0
       4  hru0004                  4       2.73882     -31.46462     -52.66874     350.33333         4     s31470s52670w         0         0         0         0
       5  hru0005                  5       0.81000     -31.46527     -52.66529     321.75000         5     s31470s52670w         0         0         0         0
       6  hru0006                  6       1.01250     -31.46551     -52.66471     320.60000         6     s31470s52660w         0         0         0         0
       7  hru0007                  7       0.60750     -31.46553     -52.66443     316.33333         7     s31470s52660w         0         0         0         0
       8  hru0008                  8       4.20034     -31.46424     -52.65973     318.18919         8     s31470s52660w         0         0         0         0
       9  hru0009                  9       1.58932     -31.46509     -52.66057     314.57143         9     s31470s52660w         0         0         0         0
      10  hru0010                 10       1.70284     -31.46519     -52.65921     317.60000        10     s31470s52660w         0         0         0         0
      11  hru0011                 11       1.36227     -31.46566     -52.65970     316.25000        11     s31470s52660w         0         0         0         0
      12  hru0012                 12       1.13523     -31.46620     -52.65961     316.70000        12     s31470s52660w         0         0         0         0
      13  hru0013                 13       0.27000     -31.46607     -52.66144     301.66667        13     s31470s52660w         0         0         0         0
      14  hru0014                 14       0.27000     -31.46634     -52.66145     299.66667        14     s31470s52660w         0         0         0         0
      15  hru0015                 15       0.09000     -31.46633     -52.66176     297.00000        15     s31470s52660w         0         0         0         0
      16  hru0016                 16       0.18000     -31.46634     -52.66097     302.00000        16     s31470s52660w         0         0         0         0
      17  hru0017                 17       3.67500     -31.46350     -52.66437     329.00000        17     s31470s52660w         0         0         0         0
      18  hru0018                 18       1.89000     -31.46286     -52.66372     324.16667        18     s31470s52660w         0         0         0         0
      19  hru0019                 19       3.67500     -31.46261     -52.66286     326.91429        19     s31470s52660w         0         0         0         0
      20  hru0020                 20       3.36000     -31.46201     -52.66305     330.71875        20     s31470s52660w         0         0         0         0
      21  hru0021                 21       3.46500     -31.46246     -52.66384     327.90909        21     s31470s52660w         0         0         0         0
      22  hru0022                 22       2.83500     -31.46261     -52.66419     328.48148        22     s31470s52660w         0         0         0         0
      23  hru0023                 23       1.02400     -31.46510     -52.66261     305.00000        23     s31470s52660w         0         0         0         0
      24  hru0024                 24       3.45600     -31.46329     -52.66323     314.25926        24     s31470s52660w         0         0         0         0
      25  hru0025                 25       1.28000     -31.46396     -52.66330     312.40000        25     s31470s52660w         0         0         0         0
      26  hru0026                 26       3.49138     -31.46704     -52.66344     315.73333        26     s31470s52660w         0         0         0         0
      27  hru0027                 27       0.93103     -31.46712     -52.66375     315.25000        27     s31470s52660w         0         0         0         0
      28  hru0028                 28       2.32759     -31.46772     -52.66101     304.35000        28     s31470s52660w         0         0         0         0
      29  hru0029                 29       1.16471     -31.46740     -52.66296     300.18182        29     s31470s52660w         0         0         0         0
      30  hru0030                 30       0.52941     -31.46692     -52.66228     295.40000        30     s31470s52660w         0         0         0         0
      31  hru0031                 31       0.42353     -31.46748     -52.66202     295.75000        31     s31470s52660w         0         0         0         0
      32  hru0032                 32       0.52941     -31.46773     -52.66216     296.00000        32     s31470s52660w         0         0         0         0
      33  hru0033                 33       0.95294     -31.46813     -52.66232     293.00000        33     s31470s52660w         0         0         0         0
      34  hru0034                 34       3.13483     -31.47007     -52.66332     332.20000        34     s31470s52660w         0         0         0         0
      35  hru0035                 35       6.89663     -31.46995     -52.66389     320.76364        35     s31470s52660w         0         0         0         0
      36  hru0036                 36       4.01258     -31.46808     -52.66602     328.18750        36     s31470s52670w         0         0         0         0
      37  hru0037                 37       8.27596     -31.47015     -52.66612     315.62121        37     s31470s52670w         0         0         0         0
      38  hru0038                 38       6.37674     -31.47171     -52.66592     291.58491        38     s31470s52670w         0         0         0         0
      39  hru0039                 39       1.92505     -31.47041     -52.66389     289.62500        39     s31470s52660w         0         0         0         0
      40  hru0040                 40       1.92505     -31.47307     -52.66778     295.56250        40     s31470s52670w         0         0         0         0
      41  hru0041                 41       1.20316     -31.47095     -52.66449     286.40000        41     s31470s52660w         0         0         0         0
      42  hru0042                 42      11.71180     -31.46922     -52.65900     323.20238        42     s31470s52660w         0         0         0         0
      43  hru0043                 43       5.29820     -31.47042     -52.65794     340.18421        43     s31470s52660w         0         0         0         0
      44  hru0044                 44       1.58400     -31.46868     -52.66048     303.68750        44     s31470s52660w         0         0         0         0
      45  hru0045                 45       0.39600     -31.46892     -52.66070     303.00000        45     s31470s52660w         0         0         0         0
      46  hru0046                 46       7.92360     -31.47212     -52.66170     324.74194        46     s31470s52660w         0         0         0         0
      47  hru0047                 47       2.68380     -31.47250     -52.66220     325.76190        47     s31470s52660w         0         0         0         0
      48  hru0048                 48       2.30040     -31.47262     -52.66254     315.72222        48     s31470s52660w         0         0         0         0
      49  hru0049                 49       6.26220     -31.47315     -52.66330     314.71429        49     s31470s52660w         0         0         0         0
      50  hru0050                 50       1.36500     -31.47303     -52.66569     282.84615        50     s31470s52670w         0         0         0         0
      51  hru0051                 51       1.36500     -31.47298     -52.66598     282.92308        51     s31470s52670w         0         0         0         0
      52  hru0052                 52       0.84000     -31.47338     -52.66635     283.87500        52     s31470s52670w         0         0         0         0
      53  hru0053                 53       1.47000     -31.47248     -52.66464     286.85714        53     s31470s52660w         0         0         0         0
      54  hru0054                 54       1.36500     -31.47202     -52.66490     284.61538        54     s31470s52660w         0         0         0         0
      55  hru0055                 55       1.15500     -31.47351     -52.66573     283.09091        55     s31470s52670w         0         0         0         0
      56  hru0056                 56       0.40500     -31.47545     -52.66824     270.75000        56     s31480s52670w         0         0         0         0
      57  hru0057                 57       0.70875     -31.47529     -52.66860     268.00000        57     s31480s52670w         0         0         0         0
      58  hru0058                 58       0.50625     -31.47556     -52.66780     272.80000        58     s31480s52670w         0         0         0         0
      59  hru0059                 59       2.24036     -31.47575     -52.66678     283.82353        59     s31480s52670w         0         0         0         0
      60  hru0060                 60       0.79071     -31.47539     -52.66550     300.16667        60     s31480s52670w         0         0         0         0
      61  hru0061                 61       0.65893     -31.47554     -52.66546     301.00000        61     s31480s52670w         0         0         0         0
      62  hru0062                 62       2.21205     -31.46394     -52.67297     345.40000        62     s31470s52670w         0         0         0         0
      63  hru0063                 63       4.75590     -31.46459     -52.67412     341.30233        63     s31470s52670w         0         0         0         0
      64  hru0064                 64       1.21663     -31.46426     -52.67536     344.27273        64     s31470s52670w         0         0         0         0
      65  hru0065                 65       0.99542     -31.46418     -52.67495     344.77778        65     s31470s52670w         0         0         0         0
      66  hru0066                 66       0.48462     -31.46563     -52.67444     333.00000        66     s31470s52670w         0         0         0         0
      67  hru0067                 67       0.67846     -31.46544     -52.67406     329.42857        67     s31470s52670w         0         0         0         0
      68  hru0068                 68       0.96923     -31.46577     -52.67406     328.00000        68     s31470s52670w         0         0         0         0
      69  hru0069                 69       0.38769     -31.46623     -52.67447     329.25000        69     s31470s52670w         0         0         0         0
      70  hru0070                 70       3.31269     -31.46484     -52.67070     349.60606        70     s31470s52670w         0         0         0         0
      71  hru0071                 71       1.40538     -31.46537     -52.67200     341.78571        71     s31470s52670w         0         0         0         0
      72  hru0072                 72       1.10423     -31.46570     -52.67022     352.18182        72     s31470s52670w         0         0         0         0
      73  hru0073                 73       0.80308     -31.46552     -52.67181     340.50000        73     s31470s52670w         0         0         0         0
      74  hru0074                 74       1.20462     -31.46647     -52.67205     340.66667        74     s31470s52670w         0         0         0         0
      75  hru0075                 75       0.19125     -31.46537     -52.67327     329.50000        75     s31470s52670w         0         0         0         0
      76  hru0076                 76       0.66938     -31.46595     -52.67335     328.00000        76     s31470s52670w         0         0         0         0
      77  hru0077                 77       0.47813     -31.46645     -52.67357     327.60000        77     s31470s52670w         0         0         0         0
      78  hru0078                 78       0.19125     -31.46605     -52.67281     329.50000        78     s31470s52670w         0         0         0         0
      79  hru0079                 79       5.05532     -31.46808     -52.67474     336.32500        79     s31470s52670w         0         0         0         0
      80  hru0080                 80       8.08851     -31.46849     -52.67449     326.90625        80     s31470s52670w         0         0         0         0
      81  hru0081                 81       2.78043     -31.46917     -52.67335     322.27273        81     s31470s52670w         0         0         0         0
      82  hru0082                 82       1.89574     -31.46826     -52.67270     329.86667        82     s31470s52670w         0         0         0         0
      83  hru0083                 83       3.37690     -31.46955     -52.67450     311.41667        83     s31470s52670w         0         0         0         0
      84  hru0084                 84       2.53268     -31.46872     -52.67444     317.14815        84     s31470s52670w         0         0         0         0
      85  hru0085                 85       0.75042     -31.47098     -52.67380     301.37500        85     s31470s52670w         0         0         0         0
      86  hru0086                 86       1.09125     -31.46819     -52.67057     339.90000        86     s31470s52670w         0         0         0         0
      87  hru0087                 87       1.63688     -31.46904     -52.67109     331.06667        87     s31470s52670w         0         0         0         0
      88  hru0088                 88       1.85513     -31.47288     -52.67362     302.23529        88     s31470s52670w         0         0         0         0
      89  hru0089                 89       2.07337     -31.47002     -52.67166     320.42105        89     s31470s52670w         0         0         0         0
      90  hru0090                 90       2.07337     -31.47127     -52.67222     302.57895        90     s31470s52670w         0         0         0         0
      91  hru0091                 91       0.93176     -31.47221     -52.67236     283.12500        91     s31470s52670w         0         0         0         0
      92  hru0092                 92       0.46588     -31.47188     -52.67181     288.00000        92     s31470s52670w         0         0         0         0
      93  hru0093                 93       1.16471     -31.47252     -52.67305     282.10000        93     s31470s52670w         0         0         0         0
      94  hru0094                 94       1.39765     -31.47244     -52.67216     279.50000        94     s31470s52670w         0         0         0         0
      95  hru0095                 95       6.03029     -31.47036     -52.67825     324.14545        95     s31470s52670w         0         0         0         0
      96  hru0096                 96       7.78456     -31.46967     -52.67864     328.95775        96     s31470s52670w         0         0         0         0
      97  hru0097                 97       5.81101     -31.47218     -52.67882     322.05660        97     s31470s52670w         0         0         0         0
      98  hru0098                 98       7.23635     -31.47238     -52.67827     317.87879        98     s31470s52670w         0         0         0         0
      99  hru0099                 99       6.79779     -31.47126     -52.67705     313.17742        99     s31470s52670w         0         0         0         0
     100  hru0100                100       0.98491     -31.47152     -52.67688     301.00000       100     s31470s52670w         0         0         0         0
     101  hru0101                101       1.87132     -31.47180     -52.67628     297.42105       101     s31470s52670w         0         0         0         0
     102  hru0102                102       1.77283     -31.47210     -52.67504     289.55556       102     s31470s52670w         0         0         0         0
     103  hru0103                103       0.59094     -31.47215     -52.67549     289.50000       103     s31470s52670w         0         0         0         0
     104  hru0104                104       2.00089     -31.46963     -52.66904     330.93333       104     s31470s52670w         0         0         0         0
     105  hru0105                105       5.20232     -31.47013     -52.66934     321.58974       105     s31470s52670w         0         0         0         0
     106  hru0106                106       1.73411     -31.46843     -52.66853     334.30769       106     s31470s52670w         0         0         0         0
     107  hru0107                107       4.26857     -31.47003     -52.66996     323.34375       107     s31470s52670w         0         0         0         0
     108  hru0108                108       1.73411     -31.46811     -52.66920     339.38462       108     s31470s52670w         0         0         0         0
     109  hru0109                109       0.27931     -31.47289     -52.67061     279.00000       109     s31470s52670w         0         0         0         0
     110  hru0110                110       0.55862     -31.47272     -52.67024     285.00000       110     s31470s52670w         0         0         0         0
     111  hru0111                111       1.86207     -31.47134     -52.67063     300.60000       111     s31470s52670w         0         0         0         0
     112  hru0112                112       0.41400     -31.47381     -52.66963     298.50000       112     s31470s52670w         0         0         0         0
     113  hru0113                113       0.51750     -31.47450     -52.67005     294.40000       113     s31470s52670w         0         0         0         0
     114  hru0114                114       0.51750     -31.47305     -52.66927     296.00000       114     s31470s52670w         0         0         0         0
     115  hru0115                115       1.13850     -31.47462     -52.67164     289.63636       115     s31470s52670w         0         0         0         0
     116  hru0116                116       0.72450     -31.47548     -52.67198     295.00000       116     s31480s52670w         0         0         0         0
     117  hru0117                117       0.82800     -31.47464     -52.67055     284.12500       117     s31470s52670w         0         0         0         0
     118  hru0118                118       0.82000     -31.47484     -52.66996     273.16667       118     s31470s52670w         0         0         0         0
     119  hru0119                119       0.95667     -31.47453     -52.67021     277.42857       119     s31470s52670w         0         0         0         0
     120  hru0120                120       0.41000     -31.47444     -52.66969     274.66667       120     s31470s52670w         0         0         0         0
     121  hru0121                121       1.09333     -31.47435     -52.66948     272.75000       121     s31470s52670w         0         0         0         0
     122  hru0122                122       0.41000     -31.47344     -52.66999     279.33333       122     s31470s52670w         0         0         0         0
     123  hru0123                123       0.23400     -31.47378     -52.67168     282.00000       123     s31470s52670w         0         0         0         0
     124  hru0124                124       0.35100     -31.47378     -52.67137     282.66667       124     s31470s52670w         0         0         0         0
     125  hru0125                125       0.35100     -31.47423     -52.67211     285.66667       125     s31470s52670w         0         0         0         0
     126  hru0126                126       0.11700     -31.47352     -52.67073     279.00000       126     s31470s52670w         0         0         0         0
     127  hru0127                127       0.11700     -31.47405     -52.67169     286.00000       127     s31470s52670w         0         0         0         0
     128  hru0128                128       2.15416     -31.47452     -52.67380     299.05263       128     s31470s52670w         0         0         0         0
     129  hru0129                129       1.36052     -31.47485     -52.67428     301.50000       129     s31470s52670w         0         0         0         0
     130  hru0130                130       1.92740     -31.47523     -52.67436     301.35294       130     s31480s52670w         0         0         0         0
     131  hru0131                131       3.28792     -31.47519     -52.67409     302.82759       131     s31480s52670w         0         0         0         0
     132  hru0132                132       4.23504     -31.47120     -52.68512     323.67647       132     s31470s52670w         0         0         0         0
     133  hru0133                133       3.11400     -31.47193     -52.68643     324.48000       133     s31470s52670w         0         0         0         0
     134  hru0134                134       3.86136     -31.47295     -52.68723     320.80645       134     s31470s52670w         0         0         0         0
     135  hru0135                135       1.74384     -31.47263     -52.68747     322.21429       135     s31470s52670w         0         0         0         0
     136  hru0136                136       2.61576     -31.47355     -52.68719     313.28571       136     s31470s52670w         0         0         0         0
     137  hru0137                137       0.46000     -31.47206     -52.68452     318.25000       137     s31470s52670w         0         0         0         0
     138  hru0138                138       1.26500     -31.47350     -52.68574     307.90909       138     s31470s52670w         0         0         0         0
     139  hru0139                139       0.80500     -31.47410     -52.68549     305.00000       139     s31470s52670w         0         0         0         0
     140  hru0140                140       0.69000     -31.47315     -52.68551     308.16667       140     s31470s52670w         0         0         0         0
     141  hru0141                141       0.46000     -31.47367     -52.68534     305.00000       141     s31470s52670w         0         0         0         0
     142  hru0142                142       0.46000     -31.47413     -52.68653     308.25000       142     s31470s52670w         0         0         0         0
     143  hru0143                143       6.10150     -31.47188     -52.68250     321.70968       143     s31470s52670w         0         0         0         0
     144  hru0144                144       2.46028     -31.47214     -52.68255     321.80000       144     s31470s52670w         0         0         0         0
     145  hru0145                145       1.96822     -31.47259     -52.68295     317.10000       145     s31470s52670w         0         0         0         0
     146  hru0146                146       0.99474     -31.47423     -52.68505     305.00000       146     s31470s52670w         0         0         0         0
     147  hru0147                147       0.19895     -31.47321     -52.68430     306.50000       147     s31470s52670w         0         0         0         0
     148  hru0148                148       0.69632     -31.47407     -52.68463     305.00000       148     s31470s52670w         0         0         0         0
     149  hru0149                149       5.05416     -31.47416     -52.68109     320.09524       149     s31470s52670w         0         0         0         0
     150  hru0150                150       1.32371     -31.47398     -52.68090     318.00000       150     s31470s52670w         0         0         0         0
     151  hru0151                151       1.92539     -31.47421     -52.68181     317.56250       151     s31470s52670w         0         0         0         0
     152  hru0152                152       1.20337     -31.47497     -52.68181     312.70000       152     s31470s52670w         0         0         0         0
     153  hru0153                153       1.20337     -31.47424     -52.68018     320.00000       153     s31470s52670w         0         0         0         0
     154  hru0154                154       1.56316     -31.47701     -52.68290     297.00000       154     s31480s52670w         0         0         0         0
     155  hru0155                155       1.35474     -31.47657     -52.68288     300.30769       155     s31480s52670w         0         0         0         0
     156  hru0156                156       0.52105     -31.47574     -52.68296     307.40000       156     s31480s52670w         0         0         0         0
     157  hru0157                157       0.52105     -31.47730     -52.68355     290.60000       157     s31490s52680w         0         0         0         0
     158  hru0158                158       3.69200     -31.47493     -52.68392     309.80769       158     s31470s52670w         0         0         0         0
     159  hru0159                159       0.99400     -31.47535     -52.68750     315.14286       159     s31490s52680w         0         0         0         0
     160  hru0160                160       0.85200     -31.47654     -52.68515     302.33333       160     s31490s52680w         0         0         0         0
     161  hru0161                161       0.85200     -31.47623     -52.68446     302.50000       161     s31490s52680w         0         0         0         0
     162  hru0162                162       1.99385     -31.47599     -52.68563     302.05556       162     s31490s52680w         0         0         0         0
     163  hru0163                163       1.44000     -31.47714     -52.68549     294.46154       163     s31490s52680w         0         0         0         0
     164  hru0164                164       0.44308     -31.47665     -52.68484     295.50000       164     s31490s52680w         0         0         0         0
     165  hru0165                165       0.44308     -31.47767     -52.68462     287.50000       165     s31490s52680w         0         0         0         0
     166  hru0166                166       1.48500     -31.47810     -52.68198     292.09091       166     s31490s52680w         0         0         0         0
     167  hru0167                167       4.72500     -31.47750     -52.68175     300.05714       167     s31480s52670w         0         0         0         0
     168  hru0168                168       1.89000     -31.47769     -52.68188     298.14286       168     s31480s52670w         0         0         0         0
     169  hru0169                169       1.08000     -31.47812     -52.68119     305.87500       169     s31480s52670w         0         0         0         0
     170  hru0170                170       1.08000     -31.47841     -52.68250     303.75000       170     s31490s52680w         0         0         0         0
     171  hru0171                171       1.16757     -31.47889     -52.68418     278.10000       171     s31490s52680w         0         0         0         0
     172  hru0172                172       1.98486     -31.47921     -52.68376     276.35294       172     s31490s52680w         0         0         0         0
     173  hru0173                173       1.16757     -31.47980     -52.68300     272.70000       173     s31490s52680w         0         0         0         0
     174  hru0174                174       2.83800     -31.47790     -52.68707     292.81818       174     s31490s52680w         0         0         0         0
     175  hru0175                175       1.03200     -31.47774     -52.68687     295.37500       175     s31490s52680w         0         0         0         0
     176  hru0176                176       1.93500     -31.47729     -52.68759     298.13333       176     s31490s52680w         0         0         0         0
     177  hru0177                177       0.90300     -31.47768     -52.68664     294.00000       177     s31490s52680w         0         0         0         0
     178  hru0178                178       1.03200     -31.47779     -52.68817     297.25000       178     s31490s52680w         0         0         0         0
     179  hru0179                179      12.60181     -31.47588     -52.69094     319.98148       179     s31490s52700w         0         0         0         0
     180  hru0180                180       6.65095     -31.47579     -52.69031     320.43860       180     s31490s52700w         0         0         0         0
     181  hru0181                181       3.96724     -31.47634     -52.68916     312.91176       181     s31490s52680w         0         0         0         0
     182  hru0182                182       5.07459     -31.48091     -52.69094     303.02083       182     s31490s52700w         0         0         0         0
     183  hru0183                183       4.01738     -31.48105     -52.69129     306.94737       183     s31490s52700w         0         0         0         0