object.cnt: written by SWAT+ editor v2.3.1 on 2023-08-15 15:10 for SWAT+ rev.60.5.7
name                   ls_area      tot_area       obj       hru      lhru       rtu       mfl       aqu       cha       res       rec      exco       dlr       can       pmp       out      lcha     aqu2d       hrd       wro
BHAC               12197.61000   12197.61000      6630      4732         0      1186         0       119         0         0         0         0         0         0         0         0       593         0         0         0
