aquifer.con: written by SWAT+ editor v2.3.3 on 2023-09-24 20:21 for SWAT+ rev.60.5.7
      id  name                gis_id          area           lat           lon          elev       aqu               wst       cst      ovfl      rule   out_tot       obj_typ    obj_id       hyd_typ          frac  
       1  aqu011                  11    2679.29920      40.44097    -121.37371    1707.00000         1    s40401n121378w         0         0         0         2           sdc       126           tot       1.00000           aqu       114           rhg       1.00000  
       2  aqu012                  12    8834.49651      40.44097    -121.37371    2032.99528         2    s40401n121378w         0         0         0         2           aqu         1           tot       1.00000           aqu       114           rhg       1.00000  
       3  aqu021                  21    8889.58644      40.32683    -121.19376    1498.00000         3    s40347n121180w         0         0         0         2           sdc        75           tot       1.00000           aqu       114           rhg       1.00000  
       4  aqu022                  22   12039.80364      40.32683    -121.19376    1790.66663         4    s40347n121180w         0         0         0         2           aqu         3           tot       1.00000           aqu       114           rhg       1.00000  
       5  aqu031                  31    3492.19337      40.38510    -121.40641    1772.00000         5    s40401n121378w         0         0         0         2           sdc       126           tot       1.00000           aqu       114           rhg       1.00000  
       6  aqu032                  32    9348.39512      40.38510    -121.40641    1869.33089         6    s40401n121378w         0         0         0         2           aqu         5           tot       1.00000           aqu       114           rhg       1.00000  
       7  aqu041                  41    6221.05108      40.43736    -121.08639    1843.00000         7    s40334n121009w         0         0         0         2           sdc        94           tot       1.00000           aqu       114           rhg       1.00000  
       8  aqu042                  42   10238.95339      40.43736    -121.08639    1898.26849         8    s40334n121009w         0         0         0         2           aqu         7           tot       1.00000           aqu       114           rhg       1.00000  
       9  aqu051                  51    3448.68952      40.37976    -121.23304    1832.00000         9    s40339n121238w         0         0         0         2           sdc        98           tot       1.00000           aqu       114           rhg       1.00000  
      10  aqu052                  52    7780.53716      40.37976    -121.23304    1878.04322        10    s40339n121238w         0         0         0         2           aqu         9           tot       1.00000           aqu       114           rhg       1.00000  
      11  aqu061                  61    2594.08546      40.33481    -121.28701    1494.00000        11    s40339n121238w         0         0         0         2           sdc        98           tot       1.00000           aqu       114           rhg       1.00000  
      12  aqu062                  62    3302.48069      40.33481    -121.28701    1684.35044        12    s40339n121238w         0         0         0         2           aqu        11           tot       1.00000           aqu       114           rhg       1.00000  
      13  aqu071                  71    7922.41056      40.31517    -121.10275    1534.00000        13    s40347n121180w         0         0         0         2           sdc        75           tot       1.00000           aqu       114           rhg       1.00000  
      14  aqu072                  72    9468.81558      40.31517    -121.10275    1705.83965        14    s40347n121180w         0         0         0         2           aqu        13           tot       1.00000           aqu       114           rhg       1.00000  
      15  aqu081                  81   10680.79408      40.30655    -120.94491    1542.00000        15    s40334n121009w         0         0         0         2           sdc        94           tot       1.00000           aqu       114           rhg       1.00000  
      16  aqu082                  82   22288.10064      40.30655    -120.94491    1764.29577        16    s40334n121009w         0         0         0         2           aqu        15           tot       1.00000           aqu       114           rhg       1.00000  
      17  aqu091                  91    3249.33423      40.20354    -121.28670    1545.00000        17    s40200n121285w         0         0         0         2           sdc        60           tot       1.00000           aqu       114           rhg       1.00000  
      18  aqu092                  92   18701.64892      40.20354    -121.28670    1620.20288        18    s40200n121285w         0         0         0         2           aqu        17           tot       1.00000           aqu       114           rhg       1.00000  
      19  aqu101                 101    5189.81540      40.19805    -120.78409    1220.00000        19    s40200n120783w         0         0         0         2           sdc        48           tot       1.00000           aqu       114           rhg       1.00000  
      20  aqu102                 102   22584.33049      40.19805    -120.78409    1694.79932        20    s40200n120783w         0         0         0         2           aqu        19           tot       1.00000           aqu       114           rhg       1.00000  
      21  aqu111                 111    4428.04947      40.19316    -120.63075    1596.00000        21    s40203n120629w         0         0         0         2           sdc        63           tot       1.00000           aqu       114           rhg       1.00000  
      22  aqu112                 112   25049.77311      40.19316    -120.63075    1837.67497        22    s40203n120629w         0         0         0         2           aqu        21           tot       1.00000           aqu       114           rhg       1.00000  
      23  aqu121                 121    3780.49984      40.11175    -121.30273    1664.00000        23    s40112n121302w         0         0         0         2           sdc        33           tot       1.00000           aqu       114           rhg       1.00000  
      24  aqu122                 122   16153.98252      40.11175    -121.30273    1667.05716        24    s40112n121302w         0         0         0         2           aqu        23           tot       1.00000           aqu       114           rhg       1.00000  
      25  aqu131                 131    4411.45521      40.15821    -120.96559    1117.00000        25    s40147n120951w         0         0         0         2           sdc        45           tot       1.00000           aqu       114           rhg       1.00000  
      26  aqu132                 132   15144.42402      40.15821    -120.96559    1493.40847        26    s40147n120951w         0         0         0         2           aqu        25           tot       1.00000           aqu       114           rhg       1.00000  
      27  aqu141                 141    1001.56037      40.18809    -121.09540    1370.00000        27    s40221n121078w         0         0         0         2           sdc        71           tot       1.00000           aqu       114           rhg       1.00000  
      28  aqu142                 142    2046.62460      40.18809    -121.09540    1497.80610        28    s40221n121078w         0         0         0         2           aqu        27           tot       1.00000           aqu       114           rhg       1.00000  
      29  aqu151                 151    1361.85002      40.12295    -121.09838    1439.00000        29    s40126n121098w         0         0         0         2           sdc        60           tot       1.00000           aqu       114           rhg       1.00000  
      30  aqu152                 152    5640.02796      40.12295    -121.09838    1513.33891        30    s40126n121098w         0         0         0         2           aqu        29           tot       1.00000           aqu       114           rhg       1.00000  
      31  aqu161                 161    5314.12280      39.87696    -121.50204     955.00000        31    s39866n121553w         0         0         0         2           sdc         4           tot       1.00000           aqu       114           rhg       1.00000  
      32  aqu162                 162   37885.50293      39.87696    -121.50204    1156.67736        32    s39866n121553w         0         0         0         2           aqu        31           tot       1.00000           aqu       114           rhg       1.00000  
      33  aqu171                 171     760.12146      40.07591    -121.19126    1298.00000        33    s40075n121192w         0         0         0         2           sdc        34           tot       1.00000           aqu       114           rhg       1.00000  
      34  aqu172                 172    7481.54160      40.07591    -121.19126    1339.76679        34    s40075n121192w         0         0         0         2           aqu        33           tot       1.00000           aqu       114           rhg       1.00000  
      35  aqu181                 181    7397.97235      40.09995    -120.41226    1755.00000        35    s40101n120404w         0         0         0         2           sdc        77           tot       1.00000           aqu       114           rhg       1.00000  
      36  aqu182                 182   32905.35816      40.09995    -120.41226    1879.80018        36    s40101n120404w         0         0         0         2           aqu        35           tot       1.00000           aqu       114           rhg       1.00000  
      37  aqu191                 191    1911.77760      40.03457    -121.09198    1224.00000        37    s40013n121077w         0         0         0         2           sdc        34           tot       1.00000           aqu       114           rhg       1.00000  
      38  aqu192                 192   17881.05561      40.03457    -121.09198    1433.49866        38    s40013n121077w         0         0         0         2           aqu        37           tot       1.00000           aqu       114           rhg       1.00000  
      39  aqu201                 201     768.04484      40.01964    -121.31886    1665.00000        39    s40005n121302w         0         0         0         2           sdc        27           tot       1.00000           aqu       114           rhg       1.00000  
      40  aqu202                 202    6748.03075      40.01964    -121.31886    1608.32804        40    s40005n121302w         0         0         0         2           aqu        39           tot       1.00000           aqu       114           rhg       1.00000  
      41  aqu211                 211    3386.94693      39.85468    -121.38178     919.00000        41    s39830n121433w         0         0         0         2           sdc         9           tot       1.00000           aqu       114           rhg       1.00000  
      42  aqu212                 212   32554.33737      39.85468    -121.38178    1235.54754        42    s39830n121433w         0         0         0         2           aqu        41           tot       1.00000           aqu       114           rhg       1.00000  
      43  aqu221                 221    2082.80306      40.08761    -120.87738    1070.00000        43    s40054n120828w         0         0         0         2           sdc        45           tot       1.00000           aqu       114           rhg       1.00000  
      44  aqu222                 222    1877.54261      40.08761    -120.87738    1495.02225        44    s40054n120828w         0         0         0         2           aqu        43           tot       1.00000           aqu       114           rhg       1.00000  
      45  aqu231                 231    5114.24427      40.02459    -120.72837    1349.00000        45    s40020n120709w         0         0         0         2           sdc        48           tot       1.00000           aqu       114           rhg       1.00000  
      46  aqu232                 232   20719.27095      40.02459    -120.72837    1774.12381        46    s40020n120709w         0         0         0         2           aqu        45           tot       1.00000           aqu       114           rhg       1.00000  
      47  aqu241                 241     435.86077      40.06890    -120.95136    1194.00000        47    s40069n120951w         0         0         0         2           sdc        41           tot       1.00000           aqu       114           rhg       1.00000  
      48  aqu242                 242    2446.30691      40.06890    -120.95136    1380.28093        48    s40069n120951w         0         0         0         2           aqu        47           tot       1.00000           aqu       114           rhg       1.00000  
      49  aqu251                 251     644.78392      39.95939    -121.28856     687.00000        49    s40005n121302w         0         0         0         2           sdc        23           tot       1.00000           aqu       114           rhg       1.00000  
      50  aqu252                 252    5550.32929      39.95939    -121.28856    1465.73182        50    s40005n121302w         0         0         0         2           aqu        49           tot       1.00000           aqu       114           rhg       1.00000  
      51  aqu261                 261     108.83438      39.99674    -121.23638    1229.00000        51    s39996n121240w         0         0         0         2           sdc        33           tot       1.00000           aqu       114           rhg       1.00000  
      52  aqu262                 262     571.82900      39.99674    -121.23638    1336.35085        52    s39996n121240w         0         0         0         2           aqu        51           tot       1.00000           aqu       114           rhg       1.00000  
      53  aqu271                 271    1162.34523      40.01028    -120.93175    1284.00000        53    s40012n120960w         0         0         0         2           sdc        41           tot       1.00000           aqu       114           rhg       1.00000  
      54  aqu272                 272    8228.73150      40.01028    -120.93175    1422.29768        54    s40012n120960w         0         0         0         2           aqu        53           tot       1.00000           aqu       114           rhg       1.00000  
      55  aqu281                 281    4340.96701      39.93379    -121.03299    1133.00000        55    s39932n121025w         0         0         0         2           sdc       127           tot       1.00000           aqu       114           rhg       1.00000  
      56  aqu282                 282   18226.32073      39.93379    -121.03299    1470.36252        56    s39932n121025w         0         0         0         2           aqu        55           tot       1.00000           aqu       114           rhg       1.00000  
      57  aqu291                 291     308.71291      40.06229    -120.60957    1749.00000        57    s40024n120620w         0         0         0         2           sdc        66           tot       1.00000           aqu       114           rhg       1.00000  
      58  aqu292                 292    2223.18147      40.06229    -120.60957    1711.03974        58    s40024n120620w         0         0         0         2           aqu        57           tot       1.00000           aqu       114           rhg       1.00000  
      59  aqu301                 301    1554.70215      39.90998    -121.20149    1679.00000        59    s39921n121234w         0         0         0         2           sdc        23           tot       1.00000           aqu       114           rhg       1.00000  
      60  aqu302                 302    9949.30144      39.90998    -121.20149    1703.68748        60    s39921n121234w         0         0         0         2           aqu        59           tot       1.00000           aqu       114           rhg       1.00000  
      61  aqu311                 311      89.84817      40.05862    -120.67481    1143.00000        61    s40060n120674w         0         0         0         2           sdc        63           tot       1.00000           aqu       114           rhg       1.00000  
      62  aqu312                 312      88.95118      40.05862    -120.67481    1367.68824        62    s40060n120674w         0         0         0         2           aqu        61           tot       1.00000           aqu       114           rhg       1.00000  
      63  aqu321                 321    3740.65868      39.93813    -120.82222    1392.00000        63    s39941n120813w         0         0         0         2           sdc       127           tot       1.00000           aqu       114           rhg       1.00000  
      64  aqu322                 322   16763.63446      39.93813    -120.82222    1621.07585        64    s39941n120813w         0         0         0         2           aqu        63           tot       1.00000           aqu       114           rhg       1.00000  
      65  aqu331                 331    4350.46012      39.96246    -120.45489    1663.00000        65    s39951n120425w         0         0         0         2           sdc        66           tot       1.00000           aqu       114           rhg       1.00000  
      66  aqu332                 332   27446.97000      39.96246    -120.45489    1858.83914        66    s39951n120425w         0         0         0         2           aqu        65           tot       1.00000           aqu       114           rhg       1.00000  
      67  aqu341                 341    1103.51786      40.03197    -120.47381    1690.00000        67    s40045n120508w         0         0         0         2           sdc        77           tot       1.00000           aqu       114           rhg       1.00000  
      68  aqu342                 342    9505.89103      40.03197    -120.47381    1798.15978        68    s40045n120508w         0         0         0         2           aqu        67           tot       1.00000           aqu       114           rhg       1.00000  
      69  aqu351                 351     840.62601      39.79236    -121.25737    1256.00000        69    s39756n121216w         0         0         0         2           sdc        19           tot       1.00000           aqu       114           rhg       1.00000  
      70  aqu352                 352   11108.05873      39.79236    -121.25737    1466.73744        70    s39756n121216w         0         0         0         2           aqu        69           tot       1.00000           aqu       114           rhg       1.00000  
      71  aqu361                 361    2609.63323      39.80962    -121.05806    1113.00000        71    s39807n121077w         0         0         0         2           sdc        19           tot       1.00000           aqu       114           rhg       1.00000  
      72  aqu362                 362   31894.22993      39.80962    -121.05806    1506.50294        72    s39807n121077w         0         0         0         2           aqu        71           tot       1.00000           aqu       114           rhg       1.00000  
      73  aqu371                 371    1331.57672      39.74953    -121.35080     806.00000        73    s39712n121377w         0         0         0         2           sdc         9           tot       1.00000           aqu       114           rhg       1.00000  
      74  aqu372                 372    9454.16480      39.74953    -121.35080    1014.60175        74    s39712n121377w         0         0         0         2           aqu        73           tot       1.00000           aqu       114           rhg       1.00000  
      75  aqu381                 381    5318.45824      39.90219    -120.52812    1805.00000        75    s39878n120496w         0         0         0         2           sdc        73           tot       1.00000           aqu       114           rhg       1.00000  
      76  aqu382                 382    8213.93122      39.90219    -120.52812    1848.74357        76    s39878n120496w         0         0         0         2           aqu        75           tot       1.00000           aqu       114           rhg       1.00000  
      77  aqu391                 391   12083.23274      39.79377    -120.62719    1451.00000        77    s39788n120682w         0         0         0         2           sdc        38           tot       1.00000           aqu       114           rhg       1.00000  
      78  aqu392                 392   53679.42004      39.79377    -120.62719    1734.24595        78    s39788n120682w         0         0         0         2           aqu        77           tot       1.00000           aqu       114           rhg       1.00000  
      79  aqu401                 401    9643.50374      39.89077    -120.19777    1732.00000        79    s39923n120206w         0         0         0         2           sdc        86           tot       1.00000           aqu       114           rhg       1.00000  
      80  aqu402                 402   23158.17771      39.89077    -120.19777    1915.33312        80    s39923n120206w         0         0         0         2           aqu        79           tot       1.00000           aqu       114           rhg       1.00000  
      81  aqu411                 411     996.62694      39.78803    -120.81304    1690.00000        81    s39834n120768w         0         0         0         2           sdc        38           tot       1.00000           aqu       114           rhg       1.00000  
      82  aqu412                 412   10768.62402      39.78803    -120.81304    1837.60804        82    s39834n120768w         0         0         0         2           aqu        81           tot       1.00000           aqu       114           rhg       1.00000  
      83  aqu421                 421     968.22237      39.66258    -121.40658     609.00000        83    s39712n121377w         0         0         0         2           sdc         4           tot       1.00000           aqu       114           rhg       1.00000  
      84  aqu422                 422    7070.72171      39.66258    -121.40658     715.49431        84    s39712n121377w         0         0         0         2           aqu        83           tot       1.00000           aqu       114           rhg       1.00000  
      85  aqu431                 431    4070.89927      39.66698    -121.22443    1065.00000        85    s39657n121218w         0         0         0         2           sdc         8           tot       1.00000           aqu       114           rhg       1.00000  
      86  aqu432                 432   27003.78383      39.66698    -121.22443    1135.32346        86    s39657n121218w         0         0         0         2           aqu        85           tot       1.00000           aqu       114           rhg       1.00000  
      87  aqu441                 441    2900.25691      39.66723    -121.06137    1442.00000        87    s39644n121092w         0         0         0         2           sdc        90           tot       1.00000           aqu       114           rhg       1.00000  
      88  aqu442                 442   19762.70941      39.66723    -121.06137    1437.81438        88    s39644n121092w         0         0         0         2           aqu        87           tot       1.00000           aqu       114           rhg       1.00000  
      89  aqu451                 451    1863.71406      39.60816    -121.48363     254.00000        89    s39628n121484w         0         0         0         2           sdc         2           tot       1.00000           aqu       114           rhg       1.00000  
      90  aqu452                 452    3514.76753      39.60816    -121.48363     437.09321        90    s39628n121484w         0         0         0         2           aqu        89           tot       1.00000           aqu       114           rhg       1.00000  
      91  aqu461                 461       7.10114      39.70852    -121.27553     675.00000        91    s39756n121216w         0         0         0         2           sdc        18           tot       1.00000           aqu       114           rhg       1.00000  
      92  aqu462                 462      18.53772      39.70852    -121.27553     771.33468        92    s39756n121216w         0         0         0         2           aqu        91           tot       1.00000           aqu       114           rhg       1.00000  
      93  aqu471                 471    9615.09916      39.82943    -120.31603    1499.00000        93    s39813n120321w         0         0         0         2           sdc        73           tot       1.00000           aqu       114           rhg       1.00000  
      94  aqu472                 472    9812.58572      39.82943    -120.31603    1743.72469        94    s39813n120321w         0         0         0         2           aqu        93           tot       1.00000           aqu       114           rhg       1.00000  
      95  aqu481                 481    1829.62857      39.58323    -121.43395     338.00000        95    s39599n121394w         0         0         0         2           sdc         2           tot       1.00000           aqu       114           rhg       1.00000  
      96  aqu482                 482    4667.54491      39.58323    -121.43395     528.43685        96    s39599n121394w         0         0         0         2           aqu        95           tot       1.00000           aqu       114           rhg       1.00000  
      97  aqu491                 491     528.62415      39.55463    -121.51651     233.00000        97    s39555n121519w         0         0         0         1           aqu       114           rhg       1.00000  
      98  aqu492                 492    4054.45452      39.55463    -121.51651     260.35746        98    s39555n121519w         0         0         0         2           aqu        97           tot       1.00000           aqu       114           rhg       1.00000  
      99  aqu501                 501    2873.27256      39.54886    -121.28580     316.00000        99    s39556n121289w         0         0         0         2           sdc         8           tot       1.00000           aqu       114           rhg       1.00000  
     100  aqu502                 502   15077.07527      39.54886    -121.28580     778.11348       100    s39556n121289w         0         0         0         2           aqu        99           tot       1.00000           aqu       114           rhg       1.00000  
     101  aqu511                 511    2777.59399      39.75043    -120.36076    1487.00000       101    s39739n120332w         0         0         0         2           sdc        83           tot       1.00000           aqu       114           rhg       1.00000  
     102  aqu512                 512     687.76453      39.75043    -120.36076    1595.19161       102    s39739n120332w         0         0         0         2           aqu       101           tot       1.00000           aqu       114           rhg       1.00000  
     103  aqu521                 521     170.57697      39.78576    -120.31563    1490.00000       103    s39813n120321w         0         0         0         2           sdc        83           tot       1.00000           aqu       114           rhg       1.00000  
     104  aqu531                 531    6555.70186      39.69180    -120.43307    1511.00000       104    s39622n120378w         0         0         0         2           sdc        97           tot       1.00000           aqu       114           rhg       1.00000  
     105  aqu532                 532    7068.55399      39.69180    -120.43307    1685.85746       105    s39622n120378w         0         0         0         2           aqu       104           tot       1.00000           aqu       114           rhg       1.00000  
     106  aqu541                 541    8740.46240      39.72763    -120.21283    1514.00000       106    s39767n120242w         0         0         0         2           sdc        86           tot       1.00000           aqu       114           rhg       1.00000  
     107  aqu542                 542    5118.72921      39.72763    -120.21283    1857.76272       107    s39767n120242w         0         0         0         2           aqu       106           tot       1.00000           aqu       114           rhg       1.00000  
     108  aqu551                 551   11490.24980      39.64113    -120.24545    1744.00000       108    s39626n120199w         0         0         0         2           sdc        97           tot       1.00000           aqu       114           rhg       1.00000  
     109  aqu552                 552   16797.42096      39.64113    -120.24545    1966.14333       109    s39626n120199w         0         0         0         2           aqu       108           tot       1.00000           aqu       114           rhg       1.00000  
     110  aqu561                 561    3389.78739      39.57752    -120.42306    1862.00000       110    s39622n120378w         0         0         0         2           sdc       132           tot       1.00000           aqu       114           rhg       1.00000  
     111  aqu562                 562    7417.55656      39.57752    -120.42306    2059.68207       111    s39622n120378w         0         0         0         2           aqu       110           tot       1.00000           aqu       114           rhg       1.00000  