chandeg.con: written by SWAT+ editor v2.3.3 on 2023-09-24 20:21 for SWAT+ rev.60.5.7
      id  name                gis_id          area           lat           lon          elev      lcha               wst       cst      ovfl      rule   out_tot       obj_typ    obj_id       hyd_typ          frac  
       1  cha001                   1  942670.54080      39.53361    -121.52824             0         1    s39555n121519w         0         0         0         0  
       2  cha002                   2  938759.37280      39.54162    -121.49901             0         2    s39551n121483w         0         0         0         1           sdc         1           tot       1.00000  
       3  cha003                   3  585807.05280      39.55534    -121.47817             0         3    s39551n121483w         0         0         0         1           sdc         2           tot       1.00000  
       4  cha004                   4  584128.25600      39.61529    -121.48303             0         4    s39628n121484w         0         0         0         1           sdc         3           tot       1.00000  
       5  cha005                   5  352281.19040      39.55041    -121.47572             0         5    s39551n121483w         0         0         0         1           sdc         2           tot       1.00000  
       6  cha006                   6  350475.80160      39.55753    -121.46281             0         6    s39551n121483w         0         0         0         1           sdc         5           tot       1.00000  
       7  cha007                   7  537228.95360      39.66813    -121.46748             0         7    s39628n121484w         0         0         0         1           sdc         4           tot       1.00000  
       8  cha008                   8  346263.55200      39.55432    -121.44301             0         8    s39551n121483w         0         0         0         1           sdc         6           tot       1.00000  
       9  cha009                   9  530072.62720      39.68432    -121.42248             0         9    s39712n121377w         0         0         0         1           sdc         7           tot       1.00000  
      10  cha010                  10  518404.24960      39.70745    -121.41466             0        10    s39712n121377w         0         0         0         1           sdc         9           tot       1.00000  
      11  cha011                  11  305170.71360      39.57881    -121.37758             0        11    s39599n121394w         0         0         0         1           sdc         8           tot       1.00000  
      12  cha012                  12  300098.09920      39.61857    -121.30662             0        12    s39556n121289w         0         0         0         1           sdc        11           tot       1.00000  
      13  cha013                  13  295339.28960      39.63332    -121.28177             0        13    s39657n121218w         0         0         0         1           sdc        12           tot       1.00000  
      14  cha014                  14  516473.24160      39.76186    -121.43100             0        14    s39741n121445w         0         0         0         1           sdc        10           tot       1.00000  
      15  cha015                  15  508756.94080      39.80997    -121.43322             0        15    s39830n121433w         0         0         0         1           sdc        14           tot       1.00000  
      16  cha016                  16  506810.57280      39.81825    -121.42502             0        16    s39830n121433w         0         0         0         1           sdc        15           tot       1.00000  
      17  cha017                  17  286281.75360      39.67192    -121.27547             0        17    s39657n121218w         0         0         0         1           sdc        13           tot       1.00000  
      18  cha018                  18  274116.73600      39.70748    -121.27041             0        18    s39657n121218w         0         0         0         1           sdc        17           tot       1.00000  
      19  cha019                  19  274095.94880      39.70910    -121.27115             0        19    s39756n121216w         0         0         0         1           sdc        18           tot       1.00000  
      20  cha020                  20  504230.75840      39.84549    -121.39862             0        20    s39830n121433w         0         0         0         1           sdc        16           tot       1.00000  
      21  cha021                  21  492772.86400      39.87393    -121.37363             0        21    s39898n121342w         0         0         0         1           sdc        20           tot       1.00000  
      22  cha022                  22  491497.21600      39.88927    -121.36614             0        22    s39898n121342w         0         0         0         1           sdc        21           tot       1.00000  
      23  cha023                  23  483396.50560      39.90700    -121.34278             0        23    s39898n121342w         0         0         0         1           sdc        22           tot       1.00000  
      24  cha024                  24  262121.70240      39.74380    -121.21506             0        24    s39756n121216w         0         0         0         1           sdc        19           tot       1.00000  
      25  cha025                  25  470958.95040      39.93509    -121.30960             0        25    s39898n121342w         0         0         0         1           sdc        23           tot       1.00000  
      26  cha026                  26  467564.74880      39.95933    -121.28404             0        26    s40005n121302w         0         0         0         1           sdc        25           tot       1.00000  
      27  cha027                  27  465356.39040      39.97129    -121.27631             0        27    s40005n121302w         0         0         0         1           sdc        26           tot       1.00000  
      28  cha028                  28  253253.35040      39.79134    -121.10978             0        28    s39807n121077w         0         0         0         1           sdc        24           tot       1.00000  
      29  cha029                  29  464754.27840      39.98966    -121.27490             0        29    s40005n121302w         0         0         0         1           sdc        27           tot       1.00000  
      30  cha030                  30  243171.37920      39.80424    -121.05849             0        30    s39807n121077w         0         0         0         1           sdc        28           tot       1.00000  
      31  cha031                  31  458824.24320      40.00228    -121.26823             0        31    s39996n121240w         0         0         0         1           sdc        29           tot       1.00000  
      32  cha032                  32  241420.90240      39.80578    -121.05036             0        32    s39807n121077w         0         0         0         1           sdc        30           tot       1.00000  
      33  cha033                  33  457623.75680      40.00583    -121.25712             0        33    s39996n121240w         0         0         0         1           sdc        31           tot       1.00000  
      34  cha034                  34  437313.28000      40.01046    -121.23769             0        34    s39996n121240w         0         0         0         1           sdc        33           tot       1.00000  
      35  cha035                  35  267160.21760      40.01346    -121.20395             0        35    s39996n121240w         0         0         0         1           sdc        34           tot       1.00000  
      36  cha036                  36  263073.40800      40.01934    -121.15366             0        36    s40038n121120w         0         0         0         1           sdc        35           tot       1.00000  
      37  cha037                  37  255039.84640      40.02178    -121.10280             0        37    s40038n121120w         0         0         0         1           sdc        36           tot       1.00000  
      38  cha038                  38  236299.18720      39.83329    -120.95568             0        38    s39841n120959w         0         0         0         1           sdc        32           tot       1.00000  
      39  cha039                  39  215852.59520      39.85900    -120.85831             0        39    s39941n120813w         0         0         0         1           sdc        38           tot       1.00000  
      40  cha040                  40  252619.54560      40.02756    -121.03976             0        40    s40046n121013w         0         0         0         1           sdc        37           tot       1.00000  
      41  cha041                  41  247593.29280      40.03826    -120.99085             0        41    s40046n121013w         0         0         0         1           sdc        40           tot       1.00000  
      42  cha042                  42  214101.52960      39.86201    -120.79162             0        42    s39834n120768w         0         0         0         1           sdc        39           tot       1.00000  
      43  cha043                  43  202612.17280      39.86079    -120.72878             0        43    s39834n120768w         0         0         0         1           sdc        42           tot       1.00000  
      44  cha044                  44  199760.57600      39.85120    -120.70306             0        44    s39788n120682w         0         0         0         1           sdc        43           tot       1.00000  
      45  cha045                  45  194904.74240      40.06134    -120.95187             0        45    s40069n120951w         0         0         0         1           sdc        41           tot       1.00000  
      46  cha046                  46  197207.07840      39.83366    -120.67421             0        46    s39788n120682w         0         0         0         1           sdc        44           tot       1.00000  
      47  cha047                  47  172466.68800      40.08828    -120.91056             0        47    s40069n120951w         0         0         0         1           sdc        45           tot       1.00000  
      48  cha048                  48  170398.83520      40.09256    -120.88378             0        48    s40054n120828w         0         0         0         1           sdc        47           tot       1.00000  
      49  cha049                  49  188295.51360      39.80418    -120.65254             0        49    s39788n120682w         0         0         0         1           sdc        46           tot       1.00000  
      50  cha050                  50  184618.24000      39.77759    -120.62473             0        50    s39788n120682w         0         0         0         1           sdc        49           tot       1.00000  
      51  cha051                  51  140732.19840      40.07098    -120.84431             0        51    s40054n120828w         0         0         0         1           sdc        48           tot       1.00000  
      52  cha052                  52  169472.39680      40.03780    -121.21287             0        52    s40075n121192w         0         0         0         1           sdc        34           tot       1.00000  
      53  cha053                  53  180119.70560      39.76262    -120.60434             0        53    s39743n120576w         0         0         0         1           sdc        50           tot       1.00000  
      54  cha054                  54  176592.15360      39.75126    -120.59370             0        54    s39743n120576w         0         0         0         1           sdc        53           tot       1.00000  
      55  cha055                  55  174581.56800      39.74374    -120.58525             0        55    s39743n120576w         0         0         0         1           sdc        54           tot       1.00000  
      56  cha056                  56  166116.62080      39.74451    -120.57320             0        56    s39743n120576w         0         0         0         1           sdc        55           tot       1.00000  
      57  cha057                  57  137696.20480      40.04513    -120.79649             0        57    s40054n120828w         0         0         0         1           sdc        51           tot       1.00000  
      58  cha058                  58  126228.82560      40.04081    -120.76653             0        58    s40020n120709w         0         0         0         1           sdc        57           tot       1.00000  
      59  cha059                  59  122036.08320      40.03953    -120.74968             0        59    s40020n120709w         0         0         0         1           sdc        58           tot       1.00000  
      60  cha060                  60  164626.88000      40.07756    -121.16569             0        60    s40075n121192w         0         0         0         1           sdc        52           tot       1.00000  
      61  cha061                  61  161347.34080      39.76924    -120.54552             0        61    s39743n120576w         0         0         0         1           sdc        56           tot       1.00000  
      62  cha062                  62   43199.62560      39.66534    -121.49783             0        62    s39628n121484w         0         0         0         1           sdc         4           tot       1.00000  
      63  cha063                  63  117652.65920      40.05130    -120.70934             0        63    s40020n120709w         0         0         0         1           sdc        59           tot       1.00000  
      64  cha064                  64  158928.84480      39.79429    -120.51677             0        64    s39813n120482w         0         0         0         1           sdc        61           tot       1.00000  
      65  cha065                  65  157055.33440      39.79957    -120.50678             0        65    s39813n120482w         0         0         0         1           sdc        64           tot       1.00000  
      66  cha066                  66   85420.86400      40.06098    -120.67494             0        66    s40060n120674w         0         0         0         1           sdc        63           tot       1.00000  
      67  cha067                  67   40613.31520      39.54741    -121.41305             0        67    s39540n121404w         0         0         0         1           sdc         8           tot       1.00000  
      68  cha068                  68   38138.37760      39.54022    -121.38682             0        68    s39540n121404w         0         0         0         1           sdc        67           tot       1.00000  
      69  cha069                  69  139279.75680      40.11840    -121.11550             0        69    s40126n121098w         0         0         0         1           sdc        60           tot       1.00000  
      70  cha070                  70   36106.77760      39.53547    -121.36464             0        70    s39540n121404w         0         0         0         1           sdc        68           tot       1.00000  
      71  cha071                  71  132803.73760      40.15565    -121.09651             0        71    s40126n121098w         0         0         0         1           sdc        69           tot       1.00000  
      72  cha072                  72   41107.62880      39.69403    -121.52708             0        72    s39730n121520w         0         0         0         1           sdc        62           tot       1.00000  
      73  cha073                  73  153646.41280      39.80917    -120.46564             0        73    s39813n120482w         0         0         0         1           sdc        65           tot       1.00000  
      74  cha074                  74   34422.68480      39.54239    -121.33435             0        74    s39556n121289w         0         0         0         1           sdc        70           tot       1.00000  
      75  cha075                  75  132277.50400      40.18318    -121.09163             0        75    s40221n121078w         0         0         0         1           sdc        71           tot       1.00000  
      76  cha076                  76  136557.55520      39.81474    -120.40594             0        76    s39813n120482w         0         0         0         1           sdc        73           tot       1.00000  
      77  cha077                  77   53444.63360      40.05743    -120.62017             0        77    s40024n120620w         0         0         0         1           sdc        66           tot       1.00000  
      78  cha078                  78  132211.20000      39.80780    -120.37804             0        78    s39813n120321w         0         0         0         1           sdc        76           tot       1.00000  
      79  cha079                  79  130064.56320      39.80302    -120.37039             0        79    s39813n120321w         0         0         0         1           sdc        78           tot       1.00000  
      80  cha080                  80   62409.56800      40.20327    -121.10656             0        80    s40204n121130w         0         0         0         1           sdc        75           tot       1.00000  
      81  cha081                  81  128714.44480      39.80047    -120.36351             0        81    s39813n120321w         0         0         0         1           sdc        79           tot       1.00000  
      82  cha082                  82  126948.50560      39.79738    -120.35495             0        82    s39813n120321w         0         0         0         1           sdc        81           tot       1.00000  
      83  cha083                  83  117586.80320      39.79400    -120.35162             0        83    s39813n120321w         0         0         0         1           sdc        82           tot       1.00000  
      84  cha084                  84   61128.44800      40.21388    -121.13638             0        84    s40204n121130w         0         0         0         1           sdc        80           tot       1.00000  
      85  cha085                  85   66820.12800      40.22159    -121.09853             0        85    s40221n121078w         0         0         0         1           sdc        75           tot       1.00000  
      86  cha086                  86   46831.44960      39.78727    -120.33597             0        86    s39813n120321w         0         0         0         1           sdc        83           tot       1.00000  
      87  cha087                  87   59729.22240      40.23280    -121.16200             0        87    s40204n121130w         0         0         0         1           sdc        84           tot       1.00000  
      88  cha088                  88   27871.17120      39.54912    -121.26406             0        88    s39556n121289w         0         0         0         1           sdc        74           tot       1.00000  
      89  cha089                  89   58536.82560      40.26369    -121.09602             0        89    s40221n121078w         0         0         0         1           sdc        85           tot       1.00000  
      90  cha090                  90   22759.61600      39.55010    -121.21283             0        90    s39556n121289w         0         0         0         1           sdc        88           tot       1.00000  
      91  cha091                  91   40303.33120      40.08420    -120.56198             0        91    s40045n120508w         0         0         0         1           sdc        77           tot       1.00000  
      92  cha092                  92   55132.61440      40.25369    -121.17792             0        92    s40204n121130w         0         0         0         1           sdc        87           tot       1.00000  
      93  cha093                  93   30559.88800      39.78100    -121.55718             0        93    s39770n121555w         0         0         0         1           sdc        72           tot       1.00000  
      94  cha094                  94   50339.19040      40.28664    -121.07454             0        94    s40221n121078w         0         0         0         1           sdc        89           tot       1.00000  
      95  cha095                  95   70298.41280      39.78386    -120.34744             0        95    s39813n120321w         0         0         0         1           sdc        83           tot       1.00000  
      96  cha096                  96   22662.81760      39.55770    -121.19991             0        96    s39556n121289w         0         0         0         1           sdc        90           tot       1.00000  
      97  cha097                  97   67501.98400      39.77106    -120.34268             0        97    s39739n120332w         0         0         0         1           sdc        95           tot       1.00000  
      98  cha098                  98   44177.56480      40.27373    -121.18565             0        98    s40347n121180w         0         0         0         1           sdc        92           tot       1.00000  
      99  cha099                  99   52462.65920      40.03244    -120.97288             0        99    s40012n120960w         0         0         0         1           sdc        41           tot       1.00000  
     100  cha100                 100   34445.03680      40.11404    -120.52809             0       100    s40045n120508w         0         0         0         1           sdc        91           tot       1.00000  
     101  cha101                 101   13594.20640      39.57459    -121.18049             0       101    s39657n121218w         0         0         0         1           sdc        96           tot       1.00000  
     102  cha102                 102   32801.68000      39.78893    -120.27095             0       102    s39767n120242w         0         0         0         1           sdc        86           tot       1.00000  
     103  cha103                 103   28568.95040      40.11414    -120.49650             0       103    s40045n120508w         0         0         0         1           sdc       100           tot       1.00000  
     104  cha104                 104   27294.33280      40.11133    -120.48782             0       104    s40045n120508w         0         0         0         1           sdc       103           tot       1.00000  
     105  cha105                 105   23673.57120      39.84988    -121.53695             0       105    s39866n121553w         0         0         0         1           sdc        93           tot       1.00000  
     106  cha106                 106   26090.95040      40.11383    -120.48284             0       106    s40045n120508w         0         0         0         1           sdc       104           tot       1.00000  
     107  cha107                 107   50705.68640      40.01666    -120.96223             0       107    s40012n120960w         0         0         0         1           sdc        99           tot       1.00000  
     108  cha108                 108   38545.38560      39.74353    -120.35746             0       108    s39739n120332w         0         0         0         1           sdc        97           tot       1.00000  
     109  cha109                 109   24625.42400      40.11738    -120.47705             0       109    s40101n120404w         0         0         0         1           sdc       106           tot       1.00000  
     110  cha110                 110   28287.67040      39.76026    -120.33862             0       110    s39739n120332w         0         0         0         1           sdc        97           tot       1.00000  
     111  cha111                 111   48924.34560      40.00490    -120.95855             0       111    s40012n120960w         0         0         0         1           sdc       107           tot       1.00000  
     112  cha112                 112   25853.02400      39.75212    -120.33580             0       112    s39739n120332w         0         0         0         1           sdc       110           tot       1.00000  
     113  cha113                 113   20978.05120      39.86947    -121.51097             0       113    s39866n121553w         0         0         0         1           sdc       105           tot       1.00000  
     114  cha114                 114   23141.65760      39.74186    -120.32843             0       114    s39739n120332w         0         0         0         1           sdc       112           tot       1.00000  
     115  cha115                 115   47510.09600      40.00200    -120.94481             0       115    s40012n120960w         0         0         0         1           sdc       111           tot       1.00000  
     116  cha116                 116   30250.95040      40.29660    -121.22971             0       116    s40339n121238w         0         0         0         1           sdc        98           tot       1.00000  
     117  cha117                 117   21106.17120      39.72607    -120.31649             0       117    s39739n120332w         0         0         0         1           sdc       114           tot       1.00000  
     118  cha118                 118   31797.43040      40.01455    -120.59793             0       118    s40024n120620w         0         0         0         1           sdc        66           tot       1.00000  
     119  cha119                 119   19934.48160      40.02495    -121.24961             0       119    s39996n121240w         0         0         0         1           sdc        33           tot       1.00000  
     120  cha120                 120   27774.14720      40.09494    -120.85012             0       120    s40054n120828w         0         0         0         1           sdc        48           tot       1.00000  
     121  cha121                 121   46025.35680      39.99176    -120.92059             0       121    s40009n120895w         0         0         0         1           sdc       115           tot       1.00000  
     122  cha122                 122   30578.05120      39.69286    -120.37637             0       122    s39739n120332w         0         0         0         1           sdc       108           tot       1.00000  
     123  cha123                 123   20280.42080      40.11395    -120.43838             0       123    s40101n120404w         0         0         0         1           sdc       109           tot       1.00000  
     124  cha124                 124   29477.82400      40.08830    -120.66080             0       124    s40089n120649w         0         0         0         1           sdc        63           tot       1.00000  
     125  cha125                 125   25360.35520      40.10627    -120.82585             0       125    s40054n120828w         0         0         0         1           sdc       120           tot       1.00000  
     126  cha126                 126   26440.10240      40.31989    -121.28824             0       126    s40339n121238w         0         0         0         1           sdc       116           tot       1.00000  
     127  cha127                 127   43703.50720      39.97493    -120.91076             0       127    s40009n120895w         0         0         0         1           sdc       121           tot       1.00000  
     128  cha128                 128   22116.62720      40.12254    -120.81721             0       128    s40054n120828w         0         0         0         1           sdc       125           tot       1.00000  
     129  cha129                 129   17868.34880      40.05358    -121.25122             0       129    s39996n121240w         0         0         0         1           sdc       119           tot       1.00000  
     130  cha130                 130   32968.89600      40.28685    -121.04303             0       130    s40334n121009w         0         0         0         1           sdc        94           tot       1.00000  
     131  cha131                 131   13609.60480      39.91002    -121.51919             0       131    s39866n121553w         0         0         0         1           sdc       113           tot       1.00000  
     132  cha132                 132   25815.12640      39.65334    -120.38548             0       132    s39622n120378w         0         0         0         1           sdc       122           tot       1.00000  
     133  cha133                 133   21950.98240      40.14644    -121.16884             0       133    s40204n121130w         0         0         0         1           sdc        60           tot       1.00000  
     134  cha134                 134   25365.51200      39.82699    -120.18665             0       134    s39791n120203w         0         0         0         1           sdc       102           tot       1.00000  
     135  cha135                 135   17322.38240      40.09818    -120.39257             0       135    s40101n120404w         0         0         0         1           sdc       123           tot       1.00000  
     136  cha136                 136   13765.53120      40.06645    -121.25318             0       136    s40075n121192w         0         0         0         1           sdc       129           tot       1.00000  
     137  cha137                 137   21950.23520      39.96774    -120.50053             0       137    s39951n120425w         0         0         0         1           sdc       118           tot       1.00000  