hru.con: written by SWAT+ editor v2.3.3 on 2023-09-24 20:21 for SWAT+ rev.60.5.7
      id  name                gis_id          area           lat           lon          elev       hru               wst       cst      ovfl      rule   out_tot  
       1  hru00001                 1       4.02591      40.46863    -121.40996    1887.23810         1    s40401n121378w         0         0         0         0  
       2  hru00002                 2      10.92747      40.46857    -121.40985    1891.00000         2    s40401n121378w         0         0         0         0  
       3  hru00003                 3       2.39637      40.46781    -121.40935    1881.96000         3    s40401n121378w         0         0         0         0  
       4  hru00004                 4      16.70031      40.46634    -121.41563    1909.64571         4    s40401n121378w         0         0         0         0  
       5  hru00005                 5      10.87906      40.46578    -121.41336    1906.35088         5    s40401n121378w         0         0         0         0  
       6  hru00006                 6      14.98256      40.46610    -121.41514    1910.03822         6    s40401n121378w         0         0         0         0  
       7  hru00007                 7       5.34410      40.46683    -121.41388    1897.23214         7    s40401n121378w         0         0         0         0  
       8  hru00008                 8      41.66376      40.48308    -121.40843    2045.47970         8    s40401n121378w         0         0         0         0  
       9  hru00009                 9      34.26157      40.48298    -121.40908    2043.04321         9    s40401n121378w         0         0         0         0  
      10  hru00010                10      42.40398      40.48350    -121.40900    2047.45885        10    s40401n121378w         0         0         0         0  
      11  hru00011                11      94.86766      40.48134    -121.41044    2024.58681        11    s40401n121378w         0         0         0         0  
      12  hru00012                12      31.84216      40.48167    -121.40993    2022.50345        12    s40401n121378w         0         0         0         0  
      13  hru00013                13      53.33963      40.46810    -121.42776    2046.33396        13    s40401n121378w         0         0         0         0  
      14  hru00014                14     210.57211      40.46471    -121.43204    2071.82231        14    s40401n121378w         0         0         0         0  
      15  hru00015                15      88.07009      40.46745    -121.42883    2052.96045        15    s40401n121378w         0         0         0         0  
      16  hru00016                16      36.71367      40.47835    -121.42647    2092.63636        16    s40401n121378w         0         0         0         0  
      17  hru00017                17      28.01567      40.47860    -121.42553    2081.29603        17    s40401n121378w         0         0         0         0  
      18  hru00018                18      45.31053      40.47750    -121.42889    2122.33482        18    s40401n121378w         0         0         0         0  
      19  hru00019                19     174.47247      40.46544    -121.43425    2084.84562        19    s40401n121378w         0         0         0         0  
      20  hru00020                20      22.37865      40.46620    -121.42983    2046.23529        20    s40401n121378w         0         0         0         0  
      21  hru00021                21      13.09434      40.47168    -121.43318    2119.23577        21    s40401n121378w         0         0         0         0  
      22  hru00022                22      47.90613      40.46875    -121.44022    2175.08222        22    s40401n121378w         0         0         0         0  
      23  hru00023                23      23.75360      40.47469    -121.43328    2171.32389        23    s40401n121378w         0         0         0         0  
      24  hru00024                24      79.81979      40.47462    -121.43387    2182.54217        24    s40401n121378w         0         0         0         0  
      25  hru00025                25      12.98274      40.47401    -121.43381    2175.77037        25    s40401n121378w         0         0         0         0  
      26  hru00026                26     158.63814      40.47092    -121.44827    2350.95044        26    s40401n121378w         0         0         0         0  
      27  hru00027                27      69.76756      40.47112    -121.45768    2477.25137        27    s40401n121378w         0         0         0         0  
      28  hru00028                28      80.38035      40.46535    -121.44321    2188.58455        28    s40401n121378w         0         0         0         0  
      29  hru00029                29       2.11423      40.47226    -121.39776    1925.05556        29    s40401n121378w         0         0         0         0  
      30  hru00030                30       8.22200      40.47209    -121.39806    1929.27143        30    s40401n121378w         0         0         0         0  
      31  hru00031                31       7.65278      40.46970    -121.39580    1915.02597        31    s40401n121378w         0         0         0         0  
      32  hru00032                32      18.58533      40.46966    -121.39615    1915.41176        32    s40401n121378w         0         0         0         0  
      33  hru00033                33      18.18778      40.46942    -121.39612    1915.17486        33    s40401n121378w         0         0         0         0  
      34  hru00034                34       7.35462      40.47058    -121.39524    1921.52703        34    s40401n121378w         0         0         0         0  
      35  hru00035                35       9.04420      40.46917    -121.39597    1914.73626        35    s40401n121378w         0         0         0         0  
      36  hru00036                36      84.86888      40.48516    -121.38505    2074.15295        36    s40401n121378w         0         0         0         0  
      37  hru00037                37      80.24682      40.48363    -121.38634    2067.38113        37    s40401n121378w         0         0         0         0  
      38  hru00038                38      48.58079      40.48641    -121.38357    2079.36640        38    s40401n121378w         0         0         0         0  
      39  hru00039                39      94.21134      40.48330    -121.38563    2068.36743        39    s40401n121378w         0         0         0         0  
      40  hru00040                40     290.88183      40.48231    -121.38453    2051.33379        40    s40401n121378w         0         0         0         0  
      41  hru00041                41      53.66268      40.48221    -121.38615    2039.88224        41    s40401n121378w         0         0         0         0  
      42  hru00042                42     105.60451      40.47584    -121.37076    2008.84804        42    s40401n121378w         0         0         0         0  
      43  hru00043                43      49.28211      40.47509    -121.37369    1997.62815        43    s40401n121378w         0         0         0         0  
      44  hru00044                44      34.68383      40.47385    -121.37610    1990.53731        44    s40401n121378w         0         0         0         0  
      45  hru00045                45      44.20576      40.47123    -121.37096    2058.79770        45    s40401n121378w         0         0         0         0  
      46  hru00046                46     201.51729      40.47027    -121.37434    2060.88250        46    s40401n121378w         0         0         0         0  
      47  hru00047                47     111.76689      40.43847    -121.38548    1740.66817        47    s40401n121378w         0         0         0         0  
      48  hru00048                48     205.42272      40.43938    -121.38133    1708.25845        48    s40401n121378w         0         0         0         0  
      49  hru00049                49      65.49710      40.43853    -121.38349    1703.97980        49    s40401n121378w         0         0         0         0  
      50  hru00050                50      37.21426      40.43890    -121.38500    1705.71111        50    s40401n121378w         0         0         0         0  
      51  hru00051                51      71.75924      40.44062    -121.41640    1803.51559        51    s40401n121378w         0         0         0         0  
      52  hru00052                52      33.90065      40.44087    -121.41805    1799.20812        52    s40401n121378w         0         0         0         0  
      53  hru00053                53      46.11865      40.44086    -121.41811    1801.40672        53    s40401n121378w         0         0         0         0  
      54  hru00054                54     251.89187      40.46819    -121.49496    2555.36085        54    s40401n121378w         0         0         0         0  
      55  hru00055                55      36.24546      40.46936    -121.49479    2552.30233        55    s40401n121378w         0         0         0         0  
      56  hru00056                56     103.13342      40.46932    -121.48394    2443.82323        56    s40401n121378w         0         0         0         0  
      57  hru00057                57      24.22073      40.46911    -121.48409    2440.90860        57    s40401n121378w         0         0         0         0  
      58  hru00058                58      16.40759      40.46984    -121.48392    2447.46825        58    s40401n121378w         0         0         0         0  
      59  hru00059                59     104.46257      40.44797    -121.45296    2227.16120        59    s40401n121378w         0         0         0         0  
      60  hru00060                60      35.39169      40.45042    -121.45513    2234.70161        60    s40401n121378w         0         0         0         0  
      61  hru00061                61      39.38753      40.44989    -121.45438    2233.03623        61    s40401n121378w         0         0         0         0  
      62  hru00062                62     169.57140      40.42663    -121.40708    2013.32313        62    s40401n121378w         0         0         0         0  
      63  hru00063                63      39.62587      40.42595    -121.40650    2013.02414        63    s40401n121378w         0         0         0         0  
      64  hru00064                64     237.22093      40.43471    -121.40448    1933.58941        64    s40401n121378w         0         0         0         0  
      65  hru00065                65     165.98075      40.43476    -121.40601    1939.86643        65    s40401n121378w         0         0         0         0  
      66  hru00066                66     647.81266      40.43538    -121.40430    1934.31508        66    s40401n121378w         0         0         0         0  
      67  hru00067                67     429.48292      40.44082    -121.40880    1873.83937        67    s40401n121378w         0         0         0         0  
      68  hru00068                68     292.52857      40.42603    -121.41316    2041.71306        68    s40401n121378w         0         0         0         0  
      69  hru00069                69      78.90884      40.42457    -121.41221    2044.08964        69    s40401n121378w         0         0         0         0  
      70  hru00070                70      35.15643      40.45117    -121.31014    2074.24710        70    s40401n121378w         0         0         0         0  
      71  hru00071                71      10.58765      40.45722    -121.30646    2081.25641        71    s40401n121378w         0         0         0         0  
      72  hru00072                72      18.18904      40.45518    -121.30827    2082.22388        72    s40401n121378w         0         0         0         0  
      73  hru00073                73      11.13061      40.45584    -121.30745    2080.02439        73    s40401n121378w         0         0         0         0  
      74  hru00074                74      32.09880      40.43913    -121.33497    1845.62326        74    s40401n121378w         0         0         0         0  
      75  hru00075                75       4.74613      40.43303    -121.34365    1638.23684        75    s40401n121378w         0         0         0         0  
      76  hru00076                76       6.61960      40.43177    -121.34407    1624.84906        76    s40401n121378w         0         0         0         0  
      77  hru00077                77       4.87102      40.43063    -121.34425    1616.41026        77    s40401n121378w         0         0         0         0  
      78  hru00078                78       3.99674      40.43208    -121.34364    1628.03125        78    s40401n121378w         0         0         0         0  
      79  hru00079                79       4.62123      40.43108    -121.34389    1620.08108        79    s40401n121378w         0         0         0         0  
      80  hru00080                80     249.42634      40.45324    -121.30974    2067.20343        80    s40401n121378w         0         0         0         0  
      81  hru00081                81     536.81428      40.45155    -121.31152    2141.98771        81    s40401n121378w         0         0         0         0  
      82  hru00082                82     114.40828      40.45441    -121.31607    2140.27535        82    s40401n121378w         0         0         0         0  
      83  hru00083                83     194.54729      40.45384    -121.31502    2142.07823        83    s40401n121378w         0         0         0         0  
      84  hru00084                84      93.13492      40.46088    -121.30323    2123.78982        84    s40401n121378w         0         0         0         0  
      85  hru00085                85      32.96811      40.45981    -121.30426    2115.77188        85    s40401n121378w         0         0         0         0  
      86  hru00086                86      21.73835      40.45659    -121.30400    2110.39810        86    s40401n121378w         0         0         0         0  
      87  hru00087                87      18.45895      40.45738    -121.31205    2160.46970        87    s40401n121378w         0         0         0         0  
      88  hru00088                88      56.96172      40.45543    -121.31494    2166.60720        88    s40401n121378w         0         0         0         0  
      89  hru00089                89      10.44143      40.45784    -121.31153    2163.52679        89    s40401n121378w         0         0         0         0  
      90  hru00090                90      55.73804      40.44472    -121.33505    2047.02306        90    s40401n121378w         0         0         0         0  
      91  hru00091                91      27.67757      40.46121    -121.39838    1835.81818        91    s40401n121378w         0         0         0         0  
      92  hru00092                92       7.16133      40.46132    -121.39949    1830.89189        92    s40401n121378w         0         0         0         0  
      93  hru00093                93      12.38716      40.46127    -121.39993    1837.97656        93    s40401n121378w         0         0         0         0  
      94  hru00094                94       6.96778      40.46158    -121.39946    1827.63889        94    s40401n121378w         0         0         0         0  
      95  hru00095                95      64.58537      40.45976    -121.39722    1847.00000        95    s40401n121378w         0         0         0         0  
      96  hru00096                96      10.17709      40.46032    -121.39898    1849.60577        96    s40401n121378w         0         0         0         0  
      97  hru00097                97      52.31583      40.45186    -121.37338    1744.27669        97    s40401n121378w         0         0         0         0  
      98  hru00098                98      37.06081      40.44392    -121.36307    1695.17486        98    s40401n121378w         0         0         0         0  
      99  hru00099                99       8.10072      40.44490    -121.36534    1690.98750        99    s40401n121378w         0         0         0         0  
     100  hru00100               100      36.11729      40.44321    -121.35806    1685.07652       100    s40401n121378w         0         0         0         0  
     101  hru00101               101       6.00367      40.44303    -121.35829    1676.28571       101    s40401n121378w         0         0         0         0  
     102  hru00102               102       4.29258      40.44103    -121.35872    1651.22917       102    s40401n121378w         0         0         0         0  
     103  hru00103               103       7.24373      40.44303    -121.36069    1656.90123       103    s40401n121378w         0         0         0         0  
     104  hru00104               104       7.06487      40.44055    -121.35799    1655.30380       104    s40401n121378w         0         0         0         0  
     105  hru00105               105      15.56061      40.44340    -121.36102    1674.43103       105    s40401n121378w         0         0         0         0  
     106  hru00106               106       8.04859      40.43863    -121.35716    1643.97778       106    s40401n121378w         0         0         0         0  
     107  hru00107               107       5.81287      40.43539    -121.34908    1639.83077       107    s40401n121378w         0         0         0         0  
     108  hru00108               108      11.98346      40.43219    -121.35139    1619.54478       108    s40401n121378w         0         0         0         0  
     109  hru00109               109      18.06461      40.43314    -121.35059    1624.57426       109    s40401n121378w         0         0         0         0  
     110  hru00110               110      11.98346      40.43281    -121.35115    1622.56716       110    s40401n121378w         0         0         0         0  
     111  hru00111               111       7.95916      40.43362    -121.34973    1627.56180       111    s40401n121378w         0         0         0         0  
     112  hru00112               112      60.31179      40.45762    -121.41219    1966.93669       112    s40401n121378w         0         0         0         0  
     113  hru00113               113      45.62548      40.45804    -121.41513    1977.26395       113    s40401n121378w         0         0         0         0  
     114  hru00114               114     104.86027      40.45722    -121.40994    1961.60317       114    s40401n121378w         0         0         0         0  
     115  hru00115               115     142.14733      40.45766    -121.37228    2045.21879       115    s40401n121378w         0         0         0         0  
     116  hru00116               116      41.06921      40.45558    -121.38383    2001.57524       116    s40401n121378w         0         0         0         0  
     117  hru00117               117      40.86985      40.45508    -121.38837    1978.66829       117    s40401n121378w         0         0         0         0  
     118  hru00118               118      26.76377      40.45014    -121.38285    1898.18707       118    s40401n121378w         0         0         0         0  
     119  hru00119               119      30.86027      40.44959    -121.38483    1902.56047       119    s40401n121378w         0         0         0         0  
     120  hru00120               120      30.13200      40.44971    -121.38572    1904.30514       120    s40401n121378w         0         0         0         0  
     121  hru00121               121      10.65089      40.44926    -121.38483    1903.15385       121    s40401n121378w         0         0         0         0  
     122  hru00122               122     297.39217      40.45338    -121.36483    1893.46805       122    s40401n121378w         0         0         0         0  
     123  hru00123               123     191.36882      40.45288    -121.35879    2003.83810       123    s40401n121378w         0         0         0         0  
     124  hru00124               124      40.72720      40.46038    -121.36438    2128.89876       124    s40401n121378w         0         0         0         0  
     125  hru00125               125       9.34033      40.45935    -121.36090    2140.76577       125    s40401n121378w         0         0         0         0  
     126  hru00126               126       6.05859      40.46098    -121.36868    2127.26389       126    s40401n121378w         0         0         0         0  
     127  hru00127               127       3.04241      40.42854    -121.33621    1639.22500       127    s40401n121378w         0         0         0         0  
     128  hru00128               128       0.83666      40.42879    -121.33687    1633.00000       128    s40401n121378w         0         0         0         0  
     129  hru00129               129       0.45636      40.42872    -121.33718    1626.33333       129    s40401n121378w         0         0         0         0  
     130  hru00130               130       2.44361      40.42823    -121.33817    1618.38710       130    s40401n121378w         0         0         0         0  
     131  hru00131               131       0.86709      40.42831    -121.33808    1617.27273       131    s40401n121378w         0         0         0         0  
     132  hru00132               132       1.02474      40.42792    -121.33762    1613.92308       132    s40401n121378w         0         0         0         0  
     133  hru00133               133       0.72171      40.42636    -121.33548    1608.87500       133    s40401n121378w         0         0         0         0  
     134  hru00134               134       1.89450      40.42657    -121.33538    1616.61905       134    s40401n121378w         0         0         0         0  
     135  hru00135               135       3.13945      40.42640    -121.33362    1635.34211       135    s40401n121378w         0         0         0         0  
     136  hru00136               136       0.68848      40.42547    -121.33514    1610.28571       136    s40401n121378w         0         0         0         0  
     137  hru00137               137       1.18025      40.42515    -121.33527    1612.00000       137    s40401n121378w         0         0         0         0  
     138  hru00138               138      18.46298      40.42544    -121.33936    1598.55870       138    s40401n121378w         0         0         0         0  
     139  hru00139               139       9.34361      40.42444    -121.34186    1597.36800       139    s40401n121378w         0         0         0         0  
     140  hru00140               140      24.39804      40.43389    -121.32448    2011.26852       140    s40401n121378w         0         0         0         0  
     141  hru00141               141      71.75893      40.43249    -121.32802    1913.71867       141    s40401n121378w         0         0         0         0  
     142  hru00142               142      20.81009      40.42914    -121.33313    1698.76887       142    s40401n121378w         0         0         0         0  
     143  hru00143               143      24.41907      40.43294    -121.31687    2177.37209       143    s40401n121378w         0         0         0         0  
     144  hru00144               144       3.02872      40.43344    -121.31659    2180.56250       144    s40401n121378w         0         0         0         0  
     145  hru00145               145     153.50150      40.39963    -121.32526    1606.98881       145    s40401n121378w         0         0         0         0  
     146  hru00146               146      39.38525      40.39146    -121.31320    1574.41311       146    s40401n121378w         0         0         0         0  
     147  hru00147               147      39.16084      40.38722    -121.31283    1559.69914       147    s40401n121378w         0         0         0         0  
     148  hru00148               148      23.56383      40.38812    -121.31263    1558.93810       148    s40401n121378w         0         0         0         0  
     149  hru00149               149      29.51089      40.38880    -121.31274    1563.61977       149    s40401n121378w         0         0         0         0  
     150  hru00150               150      76.30191      40.38060    -121.31225    1549.71176       150    s40401n121378w         0         0         0         0  
     151  hru00151               151     117.88312      40.38829    -121.30771    1595.40657       151    s40401n121378w         0         0         0         0  
     152  hru00152               152      17.88940      40.38461    -121.30624    1589.05224       152    s40401n121378w         0         0         0         0  
     153  hru00153               153      65.41767      40.36648    -121.30857    1551.12693       153    s40339n121238w         0         0         0         0  
     154  hru00154               154      92.01113      40.36525    -121.30887    1556.51829       154    s40339n121238w         0         0         0         0  
     155  hru00155               155      61.71478      40.36432    -121.30881    1555.52182       155    s40339n121238w         0         0         0         0  
     156  hru00156               156      47.35207      40.36358    -121.30870    1556.90047       156    s40339n121238w         0         0         0         0  
     157  hru00157               157      61.82699      40.36588    -121.30886    1555.01089       157    s40339n121238w         0         0         0         0  
     158  hru00158               158      90.88904      40.35269    -121.29971    1547.32716       158    s40339n121238w         0         0         0         0  
     159  hru00159               159      96.94831      40.34906    -121.30299    1536.66204       159    s40339n121238w         0         0         0         0  
     160  hru00160               160      73.60890      40.35189    -121.30057    1545.00762       160    s40339n121238w         0         0         0         0  
     161  hru00161               161      46.79103      40.35090    -121.29985    1541.21103       161    s40339n121238w         0         0         0         0  
     162  hru00162               162      45.33231      40.34910    -121.30091    1528.17822       162    s40339n121238w         0         0         0         0  
     163  hru00163               163     503.85057      40.40408    -121.31098    1718.94254       163    s40401n121378w         0         0         0         0  
     164  hru00164               164     347.80579      40.38768    -121.32529    1732.20641       164    s40401n121378w         0         0         0         0  
     165  hru00165               165     107.59848      40.38846    -121.32626    1738.23077       165    s40401n121378w         0         0         0         0  
     166  hru00166               166      64.95494      40.38789    -121.32686    1744.31856       166    s40401n121378w         0         0         0         0  
     167  hru00167               167     302.20927      40.41032    -121.34234    1868.66297       167    s40401n121378w         0         0         0         0  
     168  hru00168               168     197.64098      40.44976    -121.19697    2023.38039       168    s40347n121180w         0         0         0         0  
     169  hru00169               169     174.27837      40.44363    -121.19510    2007.83990       169    s40347n121180w         0         0         0         0  
     170  hru00170               170     290.42705      40.44210    -121.19445    2004.57720       170    s40347n121180w         0         0         0         0  
     171  hru00171               171     211.25993      40.44005    -121.19364    1999.01992       171    s40347n121180w         0         0         0         0  
     172  hru00172               172     164.53473      40.43846    -121.19261    1994.44482       172    s40347n121180w         0         0         0         0  
     173  hru00173               173     180.91840      40.35645    -121.17109    1704.31090       173    s40347n121180w         0         0         0         0  
     174  hru00174               174     106.77351      40.35483    -121.17020    1704.95325       174    s40347n121180w         0         0         0         0  
     175  hru00175               175     112.49569      40.35641    -121.17143    1702.32251       175    s40347n121180w         0         0         0         0  
     176  hru00176               176      87.65898      40.35590    -121.17018    1695.78333       176    s40347n121180w         0         0         0         0  
     177  hru00177               177      78.90506      40.30608    -121.14729    1499.91896       177    s40347n121180w         0         0         0         0  
     178  hru00178               178     120.77059      40.30949    -121.14775    1510.35065       178    s40347n121180w         0         0         0         0  
     179  hru00179               179     140.19523      40.30712    -121.14786    1503.37608       179    s40347n121180w         0         0         0         0  
     180  hru00180               180     105.56870      40.31268    -121.14889    1523.28457       180    s40347n121180w         0         0         0         0  
     181  hru00181               181    1088.61208      40.44272    -121.20239    2046.46879       181    s40347n121180w         0         0         0         0  