object.cnt: written by SWAT+ editor v2.3.3 on 2023-09-24 20:21 for SWAT+ rev.60.5.7
name                   ls_area      tot_area       obj       hru      lhru       rtu       mfl       aqu       cha       res       rec      exco       dlr       can       pmp       out      lcha     aqu2d       hrd       wro  
Feather_Naturalflow100_exemptforest  942671.32699  942671.32699     13570     11929         0      1009         0       114         0         0         0         0         0         0         0         0       518         0         0         0  
