rout_unit.con: written by SWAT+ editor v2.3.3 on 2023-09-24 20:21 for SWAT+ rev.60.5.7
      id  name                gis_id          area           lat           lon          elev       rtu               wst       cst      ovfl      rule   out_tot       obj_typ    obj_id       hyd_typ          frac  
       1  rtu0011                 11     233.14179      39.53897    -121.53109      82.97563         1    s39555n121519w         0         0         0         2           sdc         1           tot       1.00000           aqu        97           rhg       1.00000  
       2  rtu0012                 12    1841.88739      39.53551    -121.51764     190.09813         2    s39555n121519w         0         0         0         4           sdc         1           sur       0.89000            ru         1           sur       0.11000            ru         1           lat       1.00000           aqu        98           rhg       1.00000  
       3  rtu0021                 21     168.18500      39.54140    -121.49520     167.54356         3    s39551n121483w         0         0         0         2           sdc         2           tot       1.00000           aqu        97           rhg       1.00000  
       4  rtu0022                 22     502.98528      39.53888    -121.49274     220.15218         4    s39551n121483w         0         0         0         4           sdc         2           sur       0.75000            ru         3           sur       0.25000            ru         3           lat       1.00000           aqu        98           rhg       1.00000  
       5  rtu0031                 31     361.70988      39.57243    -121.46060     260.18413         5    s39584n121482w         0         0         0         2           sdc         3           tot       1.00000           aqu        89           rhg       1.00000  
       6  rtu0032                 32     153.60897      39.57850    -121.46355     349.85791         6    s39584n121482w         0         0         0         4           sdc         3           sur       0.30000            ru         5           sur       0.70000            ru         5           lat       1.00000           aqu        90           rhg       1.00000  
       7  rtu0041                 41    1396.98200      39.61100    -121.48227     261.10648         7    s39628n121484w         0         0         0         2           sdc         4           tot       1.00000           aqu        89           rhg       1.00000  
       8  rtu0042                 42    2302.71429      39.62657    -121.48105     469.10316         8    s39628n121484w         0         0         0         4           sdc         4           sur       0.62000            ru         7           sur       0.38000            ru         7           lat       1.00000           aqu        90           rhg       1.00000  
       9  rtu0051                 51     495.51039      39.55020    -121.47045     254.49917         9    s39551n121483w         0         0         0         2           sdc         5           tot       1.00000           aqu        95           rhg       1.00000  
      10  rtu0052                 52     138.28545      39.53951    -121.46730     321.47946        10    s39551n121483w         0         0         0         4           sdc         5           sur       0.22000            ru         9           sur       0.78000            ru         9           lat       1.00000           aqu        96           rhg       1.00000  
      11  rtu0061                 61     103.97571      39.55377    -121.45061     254.32926        11    s39551n121483w         0         0         0         2           sdc         6           tot       1.00000           aqu        95           rhg       1.00000  
      12  rtu0062                 62      11.88507      39.54497    -121.43272     353.72327        12    s39540n121404w         0         0         0         4           sdc         6           sur       0.10000            ru        11           sur       0.90000            ru        11           lat       1.00000           aqu        96           rhg       1.00000  
      13  rtu0071                 71     342.42466      39.67370    -121.46852     267.75769        13    s39628n121484w         0         0         0         2           sdc         7           tot       1.00000           aqu        83           rhg       1.00000  
      14  rtu0072                 72    1880.60731      39.67802    -121.45474     606.86697        14    s39628n121484w         0         0         0         4           sdc         7           sur       0.85000            ru        13           sur       0.15000            ru        13           lat       1.00000           aqu        84           rhg       1.00000  
      15  rtu0081                 81     355.80471      39.55582    -121.43911     256.43866        15    s39540n121404w         0         0         0         2           sdc         8           tot       1.00000           aqu        95           rhg       1.00000  
      16  rtu0082                 82     123.70941      39.55413    -121.42799     404.45559        16    s39540n121404w         0         0         0         4           sdc         8           sur       0.26000            ru        15           sur       0.74000            ru        15           lat       1.00000           aqu        96           rhg       1.00000  
      17  rtu0091                 91     179.77108      39.67990    -121.41925     277.30312        17    s39712n121377w         0         0         0         2           sdc         9           tot       1.00000           aqu        83           rhg       1.00000  
      18  rtu0092                 92     702.86381      39.68400    -121.41408     624.01010        18    s39712n121377w         0         0         0         4           sdc         9           sur       0.80000            ru        17           sur       0.20000            ru        17           lat       1.00000           aqu        84           rhg       1.00000  
      19  rtu0101                101     163.70007      39.70985    -121.40959     322.24155        19    s39712n121377w         0         0         0         2           sdc        10           tot       1.00000           aqu        41           rhg       1.00000  
      20  rtu0102                102     507.91870      39.71051    -121.41018     593.26137        20    s39712n121377w         0         0         0         4           sdc        10           sur       0.76000            ru        19           sur       0.24000            ru        19           lat       1.00000           aqu        42           rhg       1.00000  
      21  rtu0111                111    1269.75939      39.57180    -121.38661     279.91982        21    s39599n121394w         0         0         0         2           sdc        11           tot       1.00000           aqu        85           rhg       1.00000  
      22  rtu0112                112    2375.59446      39.58634    -121.36985     508.17356        22    s39599n121394w         0         0         0         4           sdc        11           sur       0.65000            ru        21           sur       0.35000            ru        21           lat       1.00000           aqu        86           rhg       1.00000  
      23  rtu0121                121     281.80331      39.61059    -121.30602     290.91459        23    s39556n121289w         0         0         0         2           sdc        12           tot       1.00000           aqu        85           rhg       1.00000  
      24  rtu0122                122    1909.01189      39.60500    -121.29932     628.62316        24    s39556n121289w         0         0         0         4           sdc        12           sur       0.87000            ru        23           sur       0.13000            ru        23           lat       1.00000           aqu        86           rhg       1.00000  
      25  rtu0131                131      26.98435      39.63387    -121.28262     315.31302        25    s39657n121218w         0         0         0         2           sdc        13           tot       1.00000           aqu        85           rhg       1.00000  
      26  rtu0132                132      90.14716      39.63417    -121.28833     593.78939        26    s39657n121218w         0         0         0         4           sdc        13           sur       0.77000            ru        25           sur       0.23000            ru        25           lat       1.00000           aqu        86           rhg       1.00000  
      27  rtu0141                141     693.96869      39.74676    -121.45680     363.28791        27    s39741n121445w         0         0         0         2           sdc        14           tot       1.00000           aqu        41           rhg       1.00000  
      28  rtu0142                142    5412.49234      39.75961    -121.45690     768.03102        28    s39741n121445w         0         0         0         4           sdc        14           sur       0.89000            ru        27           sur       0.11000            ru        27           lat       1.00000           aqu        42           rhg       1.00000  
      29  rtu0151                151      59.50012      39.81028    -121.43143     465.93719        29    s39830n121433w         0         0         0         2           sdc        15           tot       1.00000           aqu        41           rhg       1.00000  
      30  rtu0152                152     537.36977      39.81301    -121.40769     965.17471        30    s39830n121433w         0         0         0         4           sdc        15           sur       0.90000            ru        29           sur       0.10000            ru        29           lat       1.00000           aqu        42           rhg       1.00000  
      31  rtu0161                161      32.29152      39.81929    -121.42490     474.94213        31    s39830n121433w         0         0         0         2           sdc        16           tot       1.00000           aqu        41           rhg       1.00000  
      32  rtu0162                162      45.29783      39.81957    -121.42428     629.85149        32    s39830n121433w         0         0         0         4           sdc        16           sur       0.58000            ru        31           sur       0.42000            ru        31           lat       1.00000           aqu        42           rhg       1.00000  
      33  rtu0171                171     315.29082      39.67109    -121.28645     451.06567        33    s39657n121218w         0         0         0         2           sdc        17           tot       1.00000           aqu        85           rhg       1.00000  
      34  rtu0172                172    3400.99972      39.67493    -121.29846     904.83250        34    s39657n121218w         0         0         0         4           sdc        17           sur       0.92000            ru        33           sur       0.08000            ru        33           lat       1.00000           aqu        86           rhg       1.00000  
      35  rtu0181                181       6.50315      39.70815    -121.26960     546.48276        35    s39756n121216w         0         0         0         2           sdc        18           tot       1.00000           aqu        85           rhg       1.00000  
      36  rtu0182                182      14.20229      39.70731    -121.27664     801.00526        36    s39657n121218w         0         0         0         4           sdc        18           sur       0.69000            ru        35           sur       0.31000            ru        35           lat       1.00000           aqu        86           rhg       1.00000  
      37  rtu0191                191       7.10114      39.70949    -121.27096     539.75789        37    s39756n121216w         0         0         0         2           sdc        19           tot       1.00000           aqu        91           rhg       1.00000  
      38  rtu0192                192      18.53772      39.70815    -121.27729     771.33468        38    s39756n121216w         0         0         0         4           sdc        19           sur       0.72000            ru        37           sur       0.28000            ru        37           lat       1.00000           aqu        92           rhg       1.00000  
      39  rtu0201                201     333.23055      39.84261    -121.40207     498.50314        39    s39830n121433w         0         0         0         2           sdc        20           tot       1.00000           aqu        41           rhg       1.00000  
      40  rtu0202                202    2674.59002      39.84454    -121.39232    1017.40790        40    s39830n121433w         0         0         0         4           sdc        20           sur       0.89000            ru        39           sur       0.11000            ru        39           lat       1.00000           aqu        42           rhg       1.00000  
      41  rtu0211                211      35.43097      39.87454    -121.37340     551.38608        41    s39898n121342w         0         0         0         2           sdc        21           tot       1.00000           aqu        41           rhg       1.00000  
      42  rtu0212                212     122.66293      39.87499    -121.37436     898.75015        42    s39898n121342w         0         0         0         4           sdc        21           sur       0.78000            ru        41           sur       0.22000            ru        41           lat       1.00000           aqu        42           rhg       1.00000  
      43  rtu0221                221     142.47138      39.88872    -121.36405     575.68625        43    s39898n121342w         0         0         0         2           sdc        22           tot       1.00000           aqu        41           rhg       1.00000  
      44  rtu0222                222     685.74631      39.88692    -121.35838    1046.44288        44    s39898n121342w         0         0         0         4           sdc        22           sur       0.83000            ru        43           sur       0.17000            ru        43           lat       1.00000           aqu        42           rhg       1.00000  
      45  rtu0231                231     164.82130      39.90635    -121.34131     594.70159        45    s39898n121342w         0         0         0         2           sdc        23           tot       1.00000           aqu        41           rhg       1.00000  
      46  rtu0232                232     768.71758      39.90360    -121.33413    1086.66482        46    s39898n121342w         0         0         0         4           sdc        23           sur       0.82000            ru        45           sur       0.18000            ru        45           lat       1.00000           aqu        42           rhg       1.00000  
      47  rtu0241                241     619.21980      39.73961    -121.21169     668.60080        47    s39756n121216w         0         0         0         2           sdc        24           tot       1.00000           aqu        71           rhg       1.00000  
      48  rtu0242                242    4596.38397      39.74700    -121.20707    1151.20447        48    s39756n121216w         0         0         0         4           sdc        24           sur       0.88000            ru        47           sur       0.12000            ru        47           lat       1.00000           aqu        72           rhg       1.00000  
      49  rtu0251                251     316.86054      39.93683    -121.31060     644.67775        49    s39898n121342w         0         0         0         2           sdc        25           tot       1.00000           aqu        49           rhg       1.00000  
      50  rtu0252                252    1855.49168      39.94619    -121.31969    1248.10184        50    s39898n121342w         0         0         0         4           sdc        25           sur       0.85000            ru        49           sur       0.15000            ru        49           lat       1.00000           aqu        50           rhg       1.00000  
      51  rtu0261                261      89.32492      39.95940    -121.28323     669.24686        51    s40005n121302w         0         0         0         2           sdc        26           tot       1.00000           aqu        49           rhg       1.00000  
      52  rtu0262                262     243.23289      39.95683    -121.28408    1060.15396        52    s40005n121302w         0         0         0         4           sdc        26           sur       0.73000            ru        51           sur       0.27000            ru        51           lat       1.00000           aqu        50           rhg       1.00000  
      53  rtu0271                271     104.57370      39.97095    -121.27457     684.81344        53    s39996n121240w         0         0         0         2           sdc        27           tot       1.00000           aqu        49           rhg       1.00000  
      54  rtu0272                272     487.96075      39.97487    -121.26593    1223.30714        54    s39996n121240w         0         0         0         4           sdc        27           sur       0.82000            ru        53           sur       0.18000            ru        53           lat       1.00000           aqu        50           rhg       1.00000  
      55  rtu0281                281     335.24877      39.78880    -121.10966     843.91661        55    s39807n121077w         0         0         0         2           sdc        28           tot       1.00000           aqu        71           rhg       1.00000  
      56  rtu0282                282    4092.80070      39.78938    -121.10544    1419.89064        56    s39807n121077w         0         0         0         4           sdc        28           sur       0.92000            ru        55           sur       0.08000            ru        55           lat       1.00000           aqu        72           rhg       1.00000  
      57  rtu0291                291     136.41672      39.99018    -121.27899     715.72055        57    s40005n121302w         0         0         0         2           sdc        29           tot       1.00000           aqu        39           rhg       1.00000  
      58  rtu0292                292    1129.08198      39.99304    -121.29359    1369.76332        58    s40005n121302w         0         0         0         4           sdc        29           sur       0.89000            ru        57           sur       0.11000            ru        57           lat       1.00000           aqu        40           rhg       1.00000  
      59  rtu0301                301      15.62252      39.80400    -121.05834     923.91388        59    s39807n121077w         0         0         0         2           sdc        30           tot       1.00000           aqu        71           rhg       1.00000  
      60  rtu0302                302      43.65335      39.79957    -121.05870    1177.61130        60    s39807n121077w         0         0         0         4           sdc        30           sur       0.74000            ru        59           sur       0.26000            ru        59           lat       1.00000           aqu        72           rhg       1.00000  
      61  rtu0311                311      38.04718      40.00248    -121.26753     723.32024        61    s39996n121240w         0         0         0         2           sdc        31           tot       1.00000           aqu        39           rhg       1.00000  
      62  rtu0312                312      44.77458      39.99817    -121.26502    1016.52755        62    s39996n121240w         0         0         0         4           sdc        31           sur       0.54000            ru        61           sur       0.46000            ru        61           lat       1.00000           aqu        40           rhg       1.00000  
      63  rtu0321                321      29.82481      39.80655    -121.04965     938.75188        63    s39807n121077w         0         0         0         2           sdc        32           tot       1.00000           aqu        71           rhg       1.00000  
      64  rtu0322                322      66.52651      39.80874    -121.05134    1131.49326        64    s39807n121077w         0         0         0         4           sdc        32           sur       0.69000            ru        63           sur       0.31000            ru        63           lat       1.00000           aqu        72           rhg       1.00000  
      65  rtu0331                331      72.05793      40.00484    -121.25592     732.87967        65    s39996n121240w         0         0         0         2           sdc        33           tot       1.00000           aqu        39           rhg       1.00000  
      66  rtu0332                332     303.92898      39.99387    -121.25352    1243.50713        66    s39996n121240w         0         0         0         4           sdc        33           sur       0.81000            ru        65           sur       0.19000            ru        65           lat       1.00000           aqu        40           rhg       1.00000  
      67  rtu0341                341     108.83438      40.00826    -121.23526     732.95742        67    s39996n121240w         0         0         0         2           sdc        34           tot       1.00000           aqu        51           rhg       1.00000  
      68  rtu0342                342     571.82900      39.99455    -121.23659    1336.35085        68    s39996n121240w         0         0         0         4           sdc        34           sur       0.84000            ru        67           sur       0.16000            ru        67           lat       1.00000           aqu        52           rhg       1.00000  
      69  rtu0351                351     263.04134      40.01129    -121.20382     773.10827        69    s39996n121240w         0         0         0         2           sdc        35           tot       1.00000           aqu        37           rhg       1.00000  
      70  rtu0352                352    1302.87314      40.00074    -121.20667    1300.80115        70    s39996n121240w         0         0         0         4           sdc        35           sur       0.83000            ru        69           sur       0.17000            ru        69           lat       1.00000           aqu        38           rhg       1.00000  
      71  rtu0361                361     247.26933      40.02242    -121.15281     840.68440        71    s40038n121120w         0         0         0         2           sdc        36           tot       1.00000           aqu        37           rhg       1.00000  
      72  rtu0362                362    1527.26931      40.02371    -121.15812    1305.59143        72    s40038n121120w         0         0         0         4           sdc        36           sur       0.86000            ru        71           sur       0.14000            ru        71           lat       1.00000           aqu        38           rhg       1.00000  
      73  rtu0371                371     239.04695      40.01898    -121.10309     880.00156        73    s40038n121120w         0         0         0         2           sdc        37           tot       1.00000           aqu        37           rhg       1.00000  
      74  rtu0372                372    1035.57112      40.01083    -121.11298    1294.46333        74    s40038n121120w         0         0         0         4           sdc        37           sur       0.81000            ru        73           sur       0.19000            ru        73           lat       1.00000           aqu        38           rhg       1.00000  
      75  rtu0381                381     690.53024      39.83767    -120.96640    1085.60154        75    s39841n120959w         0         0         0         2           sdc        38           tot       1.00000           aqu        71           rhg       1.00000  
      76  rtu0382                382    7990.80579      39.84075    -120.95554    1558.76513        76    s39841n120959w         0         0         0         4           sdc        38           sur       0.92000            ru        75           sur       0.08000            ru        75           lat       1.00000           aqu        72           rhg       1.00000  
      77  rtu0391                391      56.43541      39.85985    -120.85648    1219.29669        77    s39941n120813w         0         0         0         2           sdc        39           tot       1.00000           aqu        77           rhg       1.00000  
      78  rtu0392                392      93.13712      39.86197    -120.85900    1315.31220        78    s39941n120813w         0         0         0         4           sdc        39           sur       0.62000            ru        77           sur       0.38000            ru        77           lat       1.00000           aqu        78           rhg       1.00000  
      79  rtu0401                401     449.46507      40.02289    -121.04475     892.54648        79    s40013n121077w         0         0         0         2           sdc        40           tot       1.00000           aqu        37           rhg       1.00000  
      80  rtu0402                402    2333.28659      40.02219    -121.03996    1204.28073        80    s40046n121013w         0         0         0         4           sdc        40           sur       0.84000            ru        79           sur       0.16000            ru        79           lat       1.00000           aqu        38           rhg       1.00000  
      81  rtu0411                411      61.21934      40.03726    -120.98981     923.39194        81    s40046n121013w         0         0         0         2           sdc        41           tot       1.00000           aqu        37           rhg       1.00000  
      82  rtu0412                412     164.67180      40.03392    -120.98956    1133.78802        82    s40046n121013w         0         0         0         4           sdc        41           sur       0.73000            ru        81           sur       0.27000            ru        81           lat       1.00000           aqu        38           rhg       1.00000  
      83  rtu0421                421     505.45199      39.86601    -120.78352    1259.10086        83    s39834n120768w         0         0         0         2           sdc        42           tot       1.00000           aqu        77           rhg       1.00000  
      84  rtu0422                422    4199.31787      39.86837    -120.78642    1495.03717        84    s39834n120768w         0         0         0         4           sdc        42           sur       0.89000            ru        83           sur       0.11000            ru        83           lat       1.00000           aqu        78           rhg       1.00000  
      85  rtu0431                431      75.64588      39.85971    -120.72675    1267.11067        85    s39834n120768w         0         0         0         2           sdc        43           tot       1.00000           aqu        77           rhg       1.00000  
      86  rtu0432                432      15.69727      39.85938    -120.72562    1353.58571        86    s39834n120768w         0         0         0         4           sdc        43           sur       0.17000            ru        85           sur       0.83000            ru        85           lat       1.00000           aqu        78           rhg       1.00000  
      87  rtu0441                441     322.69096      39.85246    -120.70225    1298.67385        87    s39788n120682w         0         0         0         2           sdc        44           tot       1.00000           aqu        77           rhg       1.00000  
      88  rtu0442                442    1091.03479      39.84911    -120.68788    1574.57064        88    s39788n120682w         0         0         0         4           sdc        44           sur       0.77000            ru        87           sur       0.23000            ru        87           lat       1.00000           aqu        78           rhg       1.00000  
      89  rtu0451                451     435.86077      40.06416    -120.95249    1028.02452        89    s40069n120951w         0         0         0         2           sdc        45           tot       1.00000           aqu        47           rhg       1.00000  
      90  rtu0452                452    2446.30691      40.06975    -120.95116    1380.28093        90    s40069n120951w         0         0         0         4           sdc        45           sur       0.85000            ru        89           sur       0.15000            ru        89           lat       1.00000           aqu        48           rhg       1.00000  
      91  rtu0461                461     154.50595      39.83296    -120.67481    1319.43493        91    s39788n120682w         0         0         0         2           sdc        46           tot       1.00000           aqu        77           rhg       1.00000  
      92  rtu0462                462    1300.10744      39.83164    -120.65265    1694.50285        92    s39788n120682w         0         0         0         4           sdc        46           sur       0.89000            ru        91           sur       0.11000            ru        91           lat       1.00000           aqu        78           rhg       1.00000  