rout_unit.def: written by SWAT+ editor v2.3.3 on 2023-09-24 20:21 for SWAT+ rev.60.5.7
      id              name  elem_tot  elements  
       1           rtu0011         2     10580    -10615  
       2           rtu0012         2     10616    -10660  
       3           rtu0021         2     10530    -10552  
       4           rtu0022         2     10553    -10579  
       5           rtu0031         2      9876     -9892  
       6           rtu0032         2      9893     -9896  
       7           rtu0041         2      9846     -9852  
       8           rtu0042         2      9853     -9875  
       9           rtu0051         2     10431    -10434  
      10           rtu0052         2     10435    -10444  
      11           rtu0061         2     10423    -10425  
      12           rtu0062         2     10426    -10430  
      13           rtu0071         2      9331     -9344  
      14           rtu0072         2      9345     -9357  
      15           rtu0081         2     10411    -10414  
      16           rtu0082         2     10415    -10422  
      17           rtu0091         2      9303     -9315  
      18           rtu0092         2      9316     -9330  
      19           rtu0101         2      5007     -5021  
      20           rtu0102         2      5022     -5028  
      21           rtu0111         2      9601     -9627  
      22           rtu0112         2      9628     -9644  
      23           rtu0121         2      9561     -9581  
      24           rtu0122         2      9582     -9600  
      25           rtu0131         2      9546     -9552  
      26           rtu0132         2      9553     -9560  
      27           rtu0141         2      4975     -4997  
      28           rtu0142         2      4998     -5006  
      29           rtu0151         2      4948     -4961  
      30           rtu0152         2      4962     -4974  
      31           rtu0161         2      4938     -4944  
      32           rtu0162         2      4945     -4947  
      33           rtu0171         2      9526     -9535  
      34           rtu0172         2      9536     -9545  
      35           rtu0181         2      9516     -9519  
      36           rtu0182         2      9520     -9525  
      37           rtu0191         2      9897     -9900  
      38           rtu0192         2      9901     -9904  
      39           rtu0201         2      4915     -4923  
      40           rtu0202         2      4924     -4937  
      41           rtu0211         2      4908     -4910  
      42           rtu0212         2      4911     -4914  
      43           rtu0221         2      4895     -4902  
      44           rtu0222         2      4903     -4907  
      45           rtu0231         2      4881     -4888  
      46           rtu0232         2      4889     -4894  
      47           rtu0241         2      7144     -7158  
      48           rtu0242         2      7159     -7165  
      49           rtu0251         2      5350     -5367  
      50           rtu0252         2      5368     -5374  
      51           rtu0261         2      5327     -5341  
      52           rtu0262         2      5342     -5349  
      53           rtu0271         2      5314     -5322  
      54           rtu0272         2      5323     -5326  
      55           rtu0281         2      7118     -7134  
      56           rtu0282         2      7135     -7143  
      57           rtu0291         2      4636     -4650  
      58           rtu0292         2      4651     -4657  
      59           rtu0301         2      7111     -7114  
      60           rtu0302         2      7115     -7117  
      61           rtu0311         2      4630     -4634  
      62           rtu0312         1      4635  
      63           rtu0321         2      7101     -7105  
      64           rtu0322         2      7106     -7110  
      65           rtu0331         2      4621     -4625  
      66           rtu0332         2      4626     -4629  
      67           rtu0341         2      5375     -5385  
      68           rtu0342         2      5386     -5393  
      69           rtu0351         2      4564     -4577  
      70           rtu0352         2      4578     -4585  
      71           rtu0361         2      4554     -4559  
      72           rtu0362         2      4560     -4563  
      73           rtu0371         2      4548     -4549  
      74           rtu0372         2      4550     -4553  
      75           rtu0381         2      7079     -7091  
      76           rtu0382         2      7092     -7100  
      77           rtu0391         2      8425     -8428  
      78           rtu0392         2      8429     -8431  
      79           rtu0401         2      4526     -4540  
      80           rtu0402         2      4541     -4547  
      81           rtu0411         2      4513     -4518  
      82           rtu0412         2      4519     -4525  
      83           rtu0421         2      8398     -8412  
      84           rtu0422         2      8413     -8424  
      85           rtu0431         2      8382     -8394  
      86           rtu0432         2      8395     -8397  
      87           rtu0441         2      8346     -8367  
      88           rtu0442         2      8368     -8381  
      89           rtu0451         2      5264     -5282  
      90           rtu0452         2      5283     -5287  
      91           rtu0461         2      8324     -8334  
      92           rtu0462         2      8335     -8345  
      93           rtu0471         2      5055     -5060  
      94           rtu0472         2      5061     -5064  
      95           rtu0481         2      5042     -5052  
      96           rtu0482         2      5053     -5054  
      97           rtu0491         2      8290     -8316  
      98           rtu0492         2      8317     -8323  
      99           rtu0501         2      8247     -8280  
     100           rtu0502         2      8281     -8289  
     101           rtu0511         2      5251     -5259  
     102           rtu0512         2      5260     -5263  
     103           rtu0521         2      3481     -3495  
     104           rtu0522         2      3496     -3506  
     105           rtu0531         2      8198     -8232  
     106           rtu0532         2      8233     -8246  
     107           rtu0541         2      8171     -8190  
     108           rtu0542         2      8191     -8197  
     109           rtu0551         2      8163     -8170  
     110           rtu0561         2      8132     -8151  
     111           rtu0562         2      8152     -8162  
     112           rtu0571         2      5236     -5243  
     113           rtu0572         2      5244     -5250  
     114           rtu0581         2      5222     -5233  
     115           rtu0582         2      5234     -5235  
     116           rtu0591         2      5205     -5216  
     117           rtu0592         2      5217     -5221  
     118           rtu0601         2      3470     -3474  
     119           rtu0602         2      3475     -3480  
     120           rtu0611         2      8085     -8106  
     121           rtu0612         2      8107     -8131  
     122           rtu0621         2      3452     -3455  
     123           rtu0622         2      3456     -3457  
     124           rtu0631         2      5169     -5192  
     125           rtu0632         2      5193     -5204  
     126           rtu0641         2      8047     -8071  
     127           rtu0642         2      8072     -8084  
     128           rtu0651         2      8037     -8046  
     129           rtu0661         2      6009     -6038  
     130           rtu0662         2      6039     -6040  
     131           rtu0671         2     10970    -10979  
     132           rtu0672         2     10980    -11011  
     133           rtu0681         2     10935    -10946  
     134           rtu0682         2     10947    -10969  
     135           rtu0691         2      2765     -2768  
     136           rtu0692         2      2769     -2775  
     137           rtu0701         2     10912    -10921  
     138           rtu0702         2     10922    -10934  
     139           rtu0711         2      2754     -2760  
     140           rtu0712         2      2761     -2764  
     141           rtu0721         2      3393     -3419  
     142           rtu0722         2      3420     -3451  
     143           rtu0731         2      7976     -8011  
     144           rtu0732         2      8012     -8036  
     145           rtu0741         2     10872    -10890  
     146           rtu0742         2     10891    -10911  
     147           rtu0751         2      2718     -2731  
     148           rtu0752         2      2732     -2743  
     149           rtu0761         2     10233    -10243  
     150           rtu0762         2     10244    -10252  
     151           rtu0771         2      5842     -5854  
     152           rtu0772         2      5855     -5866  
     153           rtu0781         2     10218    -10224  
     154           rtu0782         2     10225    -10232  
     155           rtu0791         1     10217  
     156           rtu0801         1       306  
     157           rtu0811         2     10212    -10216  
     158           rtu0821         2     10203    -10211  
     159           rtu0831         2     10193    -10202  
     160           rtu0841         2       293      -298  
     161           rtu0842         2       299      -305  
     162           rtu0851         2      1117     -1126  
     163           rtu0852         2      1127     -1128  
     164           rtu0861         2     11062    -11071  
     165           rtu0871         2       276      -280  
     166           rtu0872         2       281      -292  
     167           rtu0881         2     10841    -10858  
     168           rtu0882         2     10859    -10871  
     169           rtu0891         2      1096     -1114  
     170           rtu0892         2      1115     -1116  
     171           rtu0901         2     10825    -10834  
     172           rtu0902         2     10835    -10840  
     173           rtu0911         2      4433     -4451  
     174           rtu0912         2      4452     -4471  
     175           rtu0921         2       264      -271  
     176           rtu0922         2       272      -275  
     177           rtu0931         2      3362     -3387  
     178           rtu0932         2      3388     -3392  
     179           rtu0941         2      1085     -1087  
     180           rtu0942         2      1088     -1095  
     181           rtu0951         2     11045    -11055  
     182           rtu0952         2     11056    -11061  
     183           rtu0961         2      9798     -9805  
     184           rtu0962         2      9806     -9810  
     185           rtu0971         2     11038    -11044  
     186           rtu0981         2       240      -253  
     187           rtu0982         2       254      -263  
     188           rtu0991         2      5525     -5526  
     189           rtu0992         2      5527     -5539  
     190           rtu1001         2      4391     -4416  
     191           rtu1002         2      4417     -4432  
     192           rtu1011         2      9788     -9791  
     193           rtu1012         2      9792     -9797  
     194           rtu1021         2      9071     -9093  
     195           rtu1031         2      4346     -4375  
     196           rtu1032         2      4376     -4390  
     197           rtu1041         2      4328     -4341  
     198           rtu1042         2      4342     -4345  
     199           rtu1051         2      3338     -3349  
     200           rtu1052         2      3350     -3361  
     201           rtu1061         2      4312     -4322  
     202           rtu1062         2      4323     -4327  
     203           rtu1071         2      5515     -5522  
     204           rtu1072         2      5523     -5524  
     205           rtu1081         2     11259    -11263  
     206           rtu1091         2      4279     -4296  
     207           rtu1092         2      4297     -4311  
     208           rtu1101         2     11584    -11593  
     209           rtu1111         2      5500     -5510  
     210           rtu1112         2      5511     -5514  
     211           rtu1121         2     11579    -11583  
     212           rtu1131         2      3331     -3334  
     213           rtu1132         2      3335     -3337  
     214           rtu1141         1     11578  
     215           rtu1151         2      5492     -5496  
     216           rtu1152         2      5497     -5499  
     217           rtu1161         2       875      -898  
     218           rtu1162         2       899      -908  
     219           rtu1171         2     11557    -11577  
     220           rtu1181         2      6758     -6777  
     221           rtu1182         2      6778     -6793  
     222           rtu1191         2      2455     -2463  
     223           rtu1192         2      2464     -2472  
     224           rtu1201         2      1938     -1953  
     225           rtu1202         2      1954     -1955  
     226           rtu1211         2      5472     -5480  
     227           rtu1212         2      5481     -5491  
     228           rtu1221         2     11240    -11258  
     229           rtu1231         2      4244     -4262  
     230           rtu1232         2      4263     -4278  
     231           rtu1241         2      2244     -2250  
     232           rtu1242         2      2251     -2260  
     233           rtu1251         2      1926     -1936  
     234           rtu1252         1      1937  
     235           rtu1261         2       841      -852  
     236           rtu1262         2       853      -874  
     237           rtu1271         2      5460     -5464  
     238           rtu1272         2      5465     -5471  
     239           rtu1281         2      1913     -1922  
     240           rtu1282         2      1923     -1925  
     241           rtu1291         2      2427     -2447  
     242           rtu1292         2      2448     -2454  
     243           rtu1301         2      1446     -1454  
     244           rtu1302         2      1455     -1463  
     245           rtu1311         2      3315     -3321  
     246           rtu1312         2      3322     -3330  
     247           rtu1321         2     11229    -11236  
     248           rtu1322         2     11237    -11239  
     249           rtu1331         2      1603     -1614  
     250           rtu1332         2      1615     -1619  
     251           rtu1341         2      9025     -9063  
     252           rtu1342         2      9064     -9070  
     253           rtu1351         2      4199     -4218  
     254           rtu1352         2      4219     -4243  
     255           rtu1361         2      2416     -2419  
     256           rtu1362         2      2420     -2426  
     257           rtu1371         2      6699     -6732  
     258           rtu1372         2      6733     -6757  
     259           rtu1381         2      4177     -4184  
     260           rtu1382         2      4185     -4198  
     261           rtu1391         2       517      -526  
     262           rtu1392         2       527      -530  
     263           rtu1401         2      3297     -3301  
     264           rtu1402         2      3302     -3314  
     265           rtu1411         2      2704     -2713  
     266           rtu1412         2      2714     -2717  
     267           rtu1421         2     11919    -11926  
     268           rtu1422         2     11927    -11929  
     269           rtu1431         2      1428     -1441  
     270           rtu1432         2      1442     -1445  
     271           rtu1441         2      6335     -6361  
     272           rtu1442         2      6362     -6368  
     273           rtu1451         2      1413     -1424  
     274           rtu1452         2      1425     -1427  
     275           rtu1461         2       797      -804  
     276           rtu1462         2       805      -812  
     277           rtu1471         1      1412  
     278           rtu1481         2     11373    -11382  
     279           rtu1491         2      2690     -2697  
     280           rtu1492         2      2698     -2703  
     281           rtu1501         2      6882     -6892  
     282           rtu1502         2      6893     -6908  
     283           rtu1511         2      6326     -6332  
     284           rtu1512         2      6333     -6334  
     285           rtu1521         2       492      -500  
     286           rtu1522         2       501      -516  
     287           rtu1531         2      4863     -4866  
     288           rtu1532         2      4867     -4880  
     289           rtu1541         2      1883     -1903  
     290           rtu1542         2      1904     -1912  
     291           rtu1551         2      6663     -6684  
     292           rtu1552         2      6685     -6698  
     293           rtu1561         2     11364    -11372  
     294           rtu1571         2      6309     -6321  
     295           rtu1572         2      6322     -6325  
     296           rtu1581         2      9776     -9785  
     297           rtu1582         2      9786     -9787  
     298           rtu1591         2      9505     -9510  
     299           rtu1592         2      9511     -9515  
     300           rtu1601         1     11916  
     301           rtu1602         2     11917    -11918  
     302           rtu1611         2      8989     -9007  
     303           rtu1612         2      9008     -9024  
     304           rtu1621         2      4139     -4153  
     305           rtu1622         2      4154     -4176  
     306           rtu1631         2      1578     -1592  
     307           rtu1632         2      1593     -1602  
     308           rtu1641         2      2223     -2232  
     309           rtu1642         2      2233     -2243  
     310           rtu1651         2      6996     -7001  
     311           rtu1652         2      7002     -7010  
     312           rtu1661         2      4111     -4130  
     313           rtu1662         2      4131     -4138  
     314           rtu1671         2     11544    -11554  
     315           rtu1672         2     11555    -11556  
     316           rtu1681         2      2217     -2219  
     317           rtu1682         2      2220     -2222  
     318           rtu1691         1     11713  
     319           rtu1701         2      9496     -9501  
     320           rtu1702         2      9502     -9504  
     321           rtu1711         2     10177    -10190  
     322           rtu1712         2     10191    -10192  
     323           rtu1721         2      2654     -2687  
     324           rtu1722         2      2688     -2689  
     325           rtu1731         2      2389     -2408  
     326           rtu1732         2      2409     -2415  
     327           rtu1741         2      2195     -2213  
     328           rtu1742         2      2214     -2216  
     329           rtu1751         2      2369     -2380  
     330           rtu1752         2      2381     -2388  
     331           rtu1761         2      5799     -5831  
     332           rtu1762         2      5832     -5841  
     333           rtu1771         2      7960     -7965  
     334           rtu1772         2      7966     -7975  
     335           rtu1781         2       638      -643  
     336           rtu1782         2       644      -663  
     337           rtu1791         2     11204    -11221  
     338           rtu1792         2     11222    -11228  
     339           rtu1801         2      9152     -9157  
     340           rtu1802         2      9158     -9166  
     341           rtu1811         2      7323     -7341  
     342           rtu1812         2      7342     -7354  
     343           rtu1821         1      1411  
     344           rtu1831         2     11533    -11540  
     345           rtu1832         2     11541    -11543  
     346           rtu1841         2      9756     -9769  
     347           rtu1842         2      9770     -9775  
     348           rtu1851         2      5782     -5789  
     349           rtu1852         2      5790     -5798  
     350           rtu1861         2      1068     -1078  
     351           rtu1862         2      1079     -1084  
     352           rtu1871         2      7910     -7942  
     353           rtu1872         2      7943     -7959  
     354           rtu1881         2      1558     -1568  
     355           rtu1882         2      1569     -1577  
     356           rtu1891         2       145      -162  
     357           rtu1892         2       163      -167  
     358           rtu1901         2      1393     -1402  
     359           rtu1902         2      1403     -1410  
     360           rtu1911         2      6286     -6303  
     361           rtu1912         2      6304     -6308  
     362           rtu1921         2       127      -139  
     363           rtu1922         2       140      -144  
     364           rtu1931         2      7880     -7901  
     365           rtu1932         2      7902     -7909  
     366           rtu1941         2     10160    -10174  
     367           rtu1942         2     10175    -10176  
     368           rtu1951         2       766      -782  
     369           rtu1952         2       783      -796  
     370           rtu1961         2      6276     -6283  
     371           rtu1962         2      6284     -6285  
     372           rtu1971         2      3268     -3282  
     373           rtu1972         2      3283     -3296  
     374           rtu1981         2      6659     -6662  
     375           rtu1991         2      1545     -1553  
     376           rtu1992         2      1554     -1557  
     377           rtu2001         2      5765     -5778  
     378           rtu2002         2      5779     -5781  
     379           rtu2011         2      4075     -4092  
     380           rtu2012         2      4093     -4110  
     381           rtu2021         2      9142     -9145  
     382           rtu2022         2      9146     -9151  
     383           rtu2031         2      1054     -1063  
     384           rtu2032         2      1064     -1067  
     385           rtu2041         2       446      -478  
     386           rtu2042         2       479      -491  
     387           rtu2051         2      6654     -6658  
     388           rtu2061         2      3214     -3224  
     389           rtu2062         2      3225     -3267  
     390           rtu2071         2     11910    -11915  
     391           rtu2081         2      3194     -3202  
     392           rtu2082         2      3203     -3213  
     393           rtu2091         2     11687    -11705  
     394           rtu2092         2     11706    -11712  
     395           rtu2101         2      7240     -7257  
     396           rtu2102         2      7258     -7272  
     397           rtu2111         2      6621     -6642  
     398           rtu2112         2      6643     -6653  
     399           rtu2121         2      4841     -4850  
     400           rtu2122         2      4851     -4862  
     401           rtu2131         2     11187    -11197  
     402           rtu2132         2     11198    -11203  
     403           rtu2141         2      5716     -5753  
     404           rtu2142         2      5754     -5764  
     405           rtu2151         2      8963     -8973  
     406           rtu2152         2      8974     -8988  
     407           rtu2161         2      1862     -1872  
     408           rtu2162         2      1873     -1882  
     409           rtu2171         2      2175     -2191  
     410           rtu2172         2      2192     -2194  
     411           rtu2181         2      5992     -5996  
     412           rtu2182         2      5997     -6008  
     413           rtu2191         2      5987     -5989  
     414           rtu2192         2      5990     -5991  
     415           rtu2201         2      8936     -8952  
     416           rtu2202         2      8953     -8962  
     417           rtu2211         2      2156     -2164  
     418           rtu2212         2      2165     -2174  
     419           rtu2221         2      6268     -6273  
     420           rtu2222         2      6274     -6275  
     421           rtu2231         2      1373     -1383  
     422           rtu2232         2      1384     -1392  
     423           rtu2241         2     11516    -11525  
     424           rtu2242         2     11526    -11532  
     425           rtu2251         2      7218     -7233  
     426           rtu2252         2      7234     -7239  
     427           rtu2261         2     11881    -11900  
     428           rtu2262         2     11901    -11909  
     429           rtu2271         2       748      -760  
     430           rtu2272         2       761      -765  
     431           rtu2281         2      1853     -1855  
     432           rtu2282         2      1856     -1861  
     433           rtu2291         2      6979     -6987  
     434           rtu2292         2      6988     -6995  
     435           rtu2301         2      2630     -2648  
     436           rtu2302         2      2649     -2653  
     437           rtu2311         1     11686  
     438           rtu2321         2      8921     -8930  
     439           rtu2322         2      8931     -8935  
     440           rtu2331         2     11340    -11361  
     441           rtu2332         2     11362    -11363  
     442           rtu2341         2      7838     -7878  
     443           rtu2342         1      7879  
     444           rtu2351         2     11171    -11180  
     445           rtu2352         2     11181    -11186  
     446           rtu2361         2      1823     -1845  
     447           rtu2362         2      1846     -1852  
     448           rtu2371         2      5695     -5710  
     449           rtu2372         2      5711     -5715  
     450           rtu2381         2      9270     -9284  
     451           rtu2382         2      9285     -9302  
     452           rtu2391         2     10392    -10401  
     453           rtu2392         2     10402    -10410  
     454           rtu2401         2      5144     -5165  
     455           rtu2402         2      5166     -5168  
     456           rtu2411         2      6241     -6261  
     457           rtu2412         2      6262     -6267  
     458           rtu2421         2      1807     -1820  
     459           rtu2422         2      1821     -1822  
     460           rtu2431         2      8880     -8900  
     461           rtu2432         2      8901     -8920  
     462           rtu2441         2      1357     -1367  
     463           rtu2442         2      1368     -1372  
     464           rtu2451         2      8846     -8876  
     465           rtu2452         2      8877     -8879  
     466           rtu2461         2      6970     -6976  
     467           rtu2462         2      6977     -6978  
     468           rtu2471         2      1802     -1804  
     469           rtu2472         2      1805     -1806  
     470           rtu2481         2       420      -436  
     471           rtu2482         2       437      -445  
     472           rtu2491         2      4064     -4074  
     473           rtu2501         2      2598     -2624  
     474           rtu2502         2      2625     -2629  
     475           rtu2511         2      8830     -8842  
     476           rtu2512         2      8843     -8845  
     477           rtu2521         2      1027     -1042  
     478           rtu2522         2      1043     -1053  
     479           rtu2531         2      5659     -5691  
     480           rtu2532         2      5692     -5694  
     481           rtu2541         2      5971     -5979  
     482           rtu2542         2      5980     -5986  
     483           rtu2551         2     11851    -11864  
     484           rtu2552         2     11865    -11880  
     485           rtu2561         2      1334     -1349  
     486           rtu2562         2      1350     -1356  
     487           rtu2571         2        91      -111  
     488           rtu2572         2       112      -126  
     489           rtu2581         2       622      -634  
     490           rtu2582         2       635      -637  
     491           rtu2591         2      6235     -6238  
     492           rtu2592         2      6239     -6240  
     493           rtu2601         2      3165     -3180  
     494           rtu2602         2      3181     -3193  
     495           rtu2611         2     11819    -11827  
     496           rtu2612         2     11828    -11850  
     497           rtu2621         2     11798    -11808  
     498           rtu2622         2     11809    -11818  
     499           rtu2631         2     11492    -11502  