rout_unit.rtu: written by SWAT+ editor v2.3.3 on 2023-09-24 20:21 for SWAT+ rev.60.5.7
      id              name            define               dlr              topo             field  
       1           rtu0011           rtu0011              null       toportu0011           fld0011  
       2           rtu0012           rtu0012              null       toportu0012           fld0012  
       3           rtu0021           rtu0021              null       toportu0021           fld0021  
       4           rtu0022           rtu0022              null       toportu0022           fld0022  
       5           rtu0031           rtu0031              null       toportu0031           fld0031  
       6           rtu0032           rtu0032              null       toportu0032           fld0032  
       7           rtu0041           rtu0041              null       toportu0041           fld0041  
       8           rtu0042           rtu0042              null       toportu0042           fld0042  
       9           rtu0051           rtu0051              null       toportu0051           fld0051  
      10           rtu0052           rtu0052              null       toportu0052           fld0052  
      11           rtu0061           rtu0061              null       toportu0061           fld0061  
      12           rtu0062           rtu0062              null       toportu0062           fld0062  
      13           rtu0071           rtu0071              null       toportu0071           fld0071  
      14           rtu0072           rtu0072              null       toportu0072           fld0072  
      15           rtu0081           rtu0081              null       toportu0081           fld0081  
      16           rtu0082           rtu0082              null       toportu0082           fld0082  
      17           rtu0091           rtu0091              null       toportu0091           fld0091  
      18           rtu0092           rtu0092              null       toportu0092           fld0092  
      19           rtu0101           rtu0101              null       toportu0101           fld0101  
      20           rtu0102           rtu0102              null       toportu0102           fld0102  
      21           rtu0111           rtu0111              null       toportu0111           fld0111  
      22           rtu0112           rtu0112              null       toportu0112           fld0112  
      23           rtu0121           rtu0121              null       toportu0121           fld0121  
      24           rtu0122           rtu0122              null       toportu0122           fld0122  
      25           rtu0131           rtu0131              null       toportu0131           fld0131  
      26           rtu0132           rtu0132              null       toportu0132           fld0132  
      27           rtu0141           rtu0141              null       toportu0141           fld0141  
      28           rtu0142           rtu0142              null       toportu0142           fld0142  
      29           rtu0151           rtu0151              null       toportu0151           fld0151  
      30           rtu0152           rtu0152              null       toportu0152           fld0152  
      31           rtu0161           rtu0161              null       toportu0161           fld0161  
      32           rtu0162           rtu0162              null       toportu0162           fld0162  
      33           rtu0171           rtu0171              null       toportu0171           fld0171  
      34           rtu0172           rtu0172              null       toportu0172           fld0172  
      35           rtu0181           rtu0181              null       toportu0181           fld0181  
      36           rtu0182           rtu0182              null       toportu0182           fld0182  
      37           rtu0191           rtu0191              null       toportu0191           fld0191  
      38           rtu0192           rtu0192              null       toportu0192           fld0192  
      39           rtu0201           rtu0201              null       toportu0201           fld0201  
      40           rtu0202           rtu0202              null       toportu0202           fld0202  
      41           rtu0211           rtu0211              null       toportu0211           fld0211  
      42           rtu0212           rtu0212              null       toportu0212           fld0212  
      43           rtu0221           rtu0221              null       toportu0221           fld0221  
      44           rtu0222           rtu0222              null       toportu0222           fld0222  
      45           rtu0231           rtu0231              null       toportu0231           fld0231  
      46           rtu0232           rtu0232              null       toportu0232           fld0232  
      47           rtu0241           rtu0241              null       toportu0241           fld0241  
      48           rtu0242           rtu0242              null       toportu0242           fld0242  
      49           rtu0251           rtu0251              null       toportu0251           fld0251  
      50           rtu0252           rtu0252              null       toportu0252           fld0252  
      51           rtu0261           rtu0261              null       toportu0261           fld0261  
      52           rtu0262           rtu0262              null       toportu0262           fld0262  
      53           rtu0271           rtu0271              null       toportu0271           fld0271  
      54           rtu0272           rtu0272              null       toportu0272           fld0272  
      55           rtu0281           rtu0281              null       toportu0281           fld0281  
      56           rtu0282           rtu0282              null       toportu0282           fld0282  
      57           rtu0291           rtu0291              null       toportu0291           fld0291  
      58           rtu0292           rtu0292              null       toportu0292           fld0292  
      59           rtu0301           rtu0301              null       toportu0301           fld0301  
      60           rtu0302           rtu0302              null       toportu0302           fld0302  
      61           rtu0311           rtu0311              null       toportu0311           fld0311  
      62           rtu0312           rtu0312              null       toportu0312           fld0312  
      63           rtu0321           rtu0321              null       toportu0321           fld0321  
      64           rtu0322           rtu0322              null       toportu0322           fld0322  
      65           rtu0331           rtu0331              null       toportu0331           fld0331  
      66           rtu0332           rtu0332              null       toportu0332           fld0332  
      67           rtu0341           rtu0341              null       toportu0341           fld0341  
      68           rtu0342           rtu0342              null       toportu0342           fld0342  
      69           rtu0351           rtu0351              null       toportu0351           fld0351  
      70           rtu0352           rtu0352              null       toportu0352           fld0352  
      71           rtu0361           rtu0361              null       toportu0361           fld0361  
      72           rtu0362           rtu0362              null       toportu0362           fld0362  
      73           rtu0371           rtu0371              null       toportu0371           fld0371  
      74           rtu0372           rtu0372              null       toportu0372           fld0372  
      75           rtu0381           rtu0381              null       toportu0381           fld0381  
      76           rtu0382           rtu0382              null       toportu0382           fld0382  
      77           rtu0391           rtu0391              null       toportu0391           fld0391  
      78           rtu0392           rtu0392              null       toportu0392           fld0392  
      79           rtu0401           rtu0401              null       toportu0401           fld0401  
      80           rtu0402           rtu0402              null       toportu0402           fld0402  
      81           rtu0411           rtu0411              null       toportu0411           fld0411  
      82           rtu0412           rtu0412              null       toportu0412           fld0412  
      83           rtu0421           rtu0421              null       toportu0421           fld0421  
      84           rtu0422           rtu0422              null       toportu0422           fld0422  
      85           rtu0431           rtu0431              null       toportu0431           fld0431  
      86           rtu0432           rtu0432              null       toportu0432           fld0432  
      87           rtu0441           rtu0441              null       toportu0441           fld0441  
      88           rtu0442           rtu0442              null       toportu0442           fld0442  
      89           rtu0451           rtu0451              null       toportu0451           fld0451  
      90           rtu0452           rtu0452              null       toportu0452           fld0452  
      91           rtu0461           rtu0461              null       toportu0461           fld0461  
      92           rtu0462           rtu0462              null       toportu0462           fld0462  
      93           rtu0471           rtu0471              null       toportu0471           fld0471  
      94           rtu0472           rtu0472              null       toportu0472           fld0472  
      95           rtu0481           rtu0481              null       toportu0481           fld0481  
      96           rtu0482           rtu0482              null       toportu0482           fld0482  
      97           rtu0491           rtu0491              null       toportu0491           fld0491  
      98           rtu0492           rtu0492              null       toportu0492           fld0492  
      99           rtu0501           rtu0501              null       toportu0501           fld0501  
     100           rtu0502           rtu0502              null       toportu0502           fld0502  
     101           rtu0511           rtu0511              null       toportu0511           fld0511  
     102           rtu0512           rtu0512              null       toportu0512           fld0512  
     103           rtu0521           rtu0521              null       toportu0521           fld0521  
     104           rtu0522           rtu0522              null       toportu0522           fld0522  
     105           rtu0531           rtu0531              null       toportu0531           fld0531  
     106           rtu0532           rtu0532              null       toportu0532           fld0532  
     107           rtu0541           rtu0541              null       toportu0541           fld0541  
     108           rtu0542           rtu0542              null       toportu0542           fld0542  
     109           rtu0551           rtu0551              null       toportu0551           fld0551  
     110           rtu0561           rtu0561              null       toportu0561           fld0561  
     111           rtu0562           rtu0562              null       toportu0562           fld0562  
     112           rtu0571           rtu0571              null       toportu0571           fld0571  
     113           rtu0572           rtu0572              null       toportu0572           fld0572  
     114           rtu0581           rtu0581              null       toportu0581           fld0581  
     115           rtu0582           rtu0582              null       toportu0582           fld0582  
     116           rtu0591           rtu0591              null       toportu0591           fld0591  
     117           rtu0592           rtu0592              null       toportu0592           fld0592  
     118           rtu0601           rtu0601              null       toportu0601           fld0601  
     119           rtu0602           rtu0602              null       toportu0602           fld0602  
     120           rtu0611           rtu0611              null       toportu0611           fld0611  
     121           rtu0612           rtu0612              null       toportu0612           fld0612  
     122           rtu0621           rtu0621              null       toportu0621           fld0621  
     123           rtu0622           rtu0622              null       toportu0622           fld0622  
     124           rtu0631           rtu0631              null       toportu0631           fld0631  
     125           rtu0632           rtu0632              null       toportu0632           fld0632  
     126           rtu0641           rtu0641              null       toportu0641           fld0641  
     127           rtu0642           rtu0642              null       toportu0642           fld0642  
     128           rtu0651           rtu0651              null       toportu0651           fld0651  
     129           rtu0661           rtu0661              null       toportu0661           fld0661  
     130           rtu0662           rtu0662              null       toportu0662           fld0662  
     131           rtu0671           rtu0671              null       toportu0671           fld0671  
     132           rtu0672           rtu0672              null       toportu0672           fld0672  
     133           rtu0681           rtu0681              null       toportu0681           fld0681  
     134           rtu0682           rtu0682              null       toportu0682           fld0682  
     135           rtu0691           rtu0691              null       toportu0691           fld0691  
     136           rtu0692           rtu0692              null       toportu0692           fld0692  
     137           rtu0701           rtu0701              null       toportu0701           fld0701  
     138           rtu0702           rtu0702              null       toportu0702           fld0702  
     139           rtu0711           rtu0711              null       toportu0711           fld0711  
     140           rtu0712           rtu0712              null       toportu0712           fld0712  
     141           rtu0721           rtu0721              null       toportu0721           fld0721  
     142           rtu0722           rtu0722              null       toportu0722           fld0722  
     143           rtu0731           rtu0731              null       toportu0731           fld0731  
     144           rtu0732           rtu0732              null       toportu0732           fld0732  
     145           rtu0741           rtu0741              null       toportu0741           fld0741  
     146           rtu0742           rtu0742              null       toportu0742           fld0742  
     147           rtu0751           rtu0751              null       toportu0751           fld0751  
     148           rtu0752           rtu0752              null       toportu0752           fld0752  
     149           rtu0761           rtu0761              null       toportu0761           fld0761  
     150           rtu0762           rtu0762              null       toportu0762           fld0762  
     151           rtu0771           rtu0771              null       toportu0771           fld0771  
     152           rtu0772           rtu0772              null       toportu0772           fld0772  
     153           rtu0781           rtu0781              null       toportu0781           fld0781  
     154           rtu0782           rtu0782              null       toportu0782           fld0782  
     155           rtu0791           rtu0791              null       toportu0791           fld0791  
     156           rtu0801           rtu0801              null       toportu0801           fld0801  
     157           rtu0811           rtu0811              null       toportu0811           fld0811  
     158           rtu0821           rtu0821              null       toportu0821           fld0821  
     159           rtu0831           rtu0831              null       toportu0831           fld0831  
     160           rtu0841           rtu0841              null       toportu0841           fld0841  
     161           rtu0842           rtu0842              null       toportu0842           fld0842  
     162           rtu0851           rtu0851              null       toportu0851           fld0851  
     163           rtu0852           rtu0852              null       toportu0852           fld0852  
     164           rtu0861           rtu0861              null       toportu0861           fld0861  
     165           rtu0871           rtu0871              null       toportu0871           fld0871  
     166           rtu0872           rtu0872              null       toportu0872           fld0872  
     167           rtu0881           rtu0881              null       toportu0881           fld0881  
     168           rtu0882           rtu0882              null       toportu0882           fld0882  
     169           rtu0891           rtu0891              null       toportu0891           fld0891  
     170           rtu0892           rtu0892              null       toportu0892           fld0892  
     171           rtu0901           rtu0901              null       toportu0901           fld0901  
     172           rtu0902           rtu0902              null       toportu0902           fld0902  
     173           rtu0911           rtu0911              null       toportu0911           fld0911  
     174           rtu0912           rtu0912              null       toportu0912           fld0912  
     175           rtu0921           rtu0921              null       toportu0921           fld0921  
     176           rtu0922           rtu0922              null       toportu0922           fld0922  
     177           rtu0931           rtu0931              null       toportu0931           fld0931  
     178           rtu0932           rtu0932              null       toportu0932           fld0932  
     179           rtu0941           rtu0941              null       toportu0941           fld0941  
     180           rtu0942           rtu0942              null       toportu0942           fld0942  
     181           rtu0951           rtu0951              null       toportu0951           fld0951  
     182           rtu0952           rtu0952              null       toportu0952           fld0952  
     183           rtu0961           rtu0961              null       toportu0961           fld0961  
     184           rtu0962           rtu0962              null       toportu0962           fld0962  
     185           rtu0971           rtu0971              null       toportu0971           fld0971  
     186           rtu0981           rtu0981              null       toportu0981           fld0981  
     187           rtu0982           rtu0982              null       toportu0982           fld0982  
     188           rtu0991           rtu0991              null       toportu0991           fld0991  
     189           rtu0992           rtu0992              null       toportu0992           fld0992  
     190           rtu1001           rtu1001              null       toportu1001           fld1001  
     191           rtu1002           rtu1002              null       toportu1002           fld1002  
     192           rtu1011           rtu1011              null       toportu1011           fld1011  
     193           rtu1012           rtu1012              null       toportu1012           fld1012  
     194           rtu1021           rtu1021              null       toportu1021           fld1021  
     195           rtu1031           rtu1031              null       toportu1031           fld1031  
     196           rtu1032           rtu1032              null       toportu1032           fld1032  
     197           rtu1041           rtu1041              null       toportu1041           fld1041  
     198           rtu1042           rtu1042              null       toportu1042           fld1042  
     199           rtu1051           rtu1051              null       toportu1051           fld1051  
     200           rtu1052           rtu1052              null       toportu1052           fld1052  
     201           rtu1061           rtu1061              null       toportu1061           fld1061  
     202           rtu1062           rtu1062              null       toportu1062           fld1062  
     203           rtu1071           rtu1071              null       toportu1071           fld1071  
     204           rtu1072           rtu1072              null       toportu1072           fld1072  
     205           rtu1081           rtu1081              null       toportu1081           fld1081  
     206           rtu1091           rtu1091              null       toportu1091           fld1091  
     207           rtu1092           rtu1092              null       toportu1092           fld1092  
     208           rtu1101           rtu1101              null       toportu1101           fld1101  
     209           rtu1111           rtu1111              null       toportu1111           fld1111  
     210           rtu1112           rtu1112              null       toportu1112           fld1112  
     211           rtu1121           rtu1121              null       toportu1121           fld1121  
     212           rtu1131           rtu1131              null       toportu1131           fld1131  
     213           rtu1132           rtu1132              null       toportu1132           fld1132  
     214           rtu1141           rtu1141              null       toportu1141           fld1141  
     215           rtu1151           rtu1151              null       toportu1151           fld1151  
     216           rtu1152           rtu1152              null       toportu1152           fld1152  
     217           rtu1161           rtu1161              null       toportu1161           fld1161  
     218           rtu1162           rtu1162              null       toportu1162           fld1162  
     219           rtu1171           rtu1171              null       toportu1171           fld1171  
     220           rtu1181           rtu1181              null       toportu1181           fld1181  
     221           rtu1182           rtu1182              null       toportu1182           fld1182  
     222           rtu1191           rtu1191              null       toportu1191           fld1191  
     223           rtu1192           rtu1192              null       toportu1192           fld1192  
     224           rtu1201           rtu1201              null       toportu1201           fld1201  
     225           rtu1202           rtu1202              null       toportu1202           fld1202  
     226           rtu1211           rtu1211              null       toportu1211           fld1211  
     227           rtu1212           rtu1212              null       toportu1212           fld1212  
     228           rtu1221           rtu1221              null       toportu1221           fld1221  
     229           rtu1231           rtu1231              null       toportu1231           fld1231  
     230           rtu1232           rtu1232              null       toportu1232           fld1232  
     231           rtu1241           rtu1241              null       toportu1241           fld1241  
     232           rtu1242           rtu1242              null       toportu1242           fld1242  
     233           rtu1251           rtu1251              null       toportu1251           fld1251  
     234           rtu1252           rtu1252              null       toportu1252           fld1252  
     235           rtu1261           rtu1261              null       toportu1261           fld1261  
     236           rtu1262           rtu1262              null       toportu1262           fld1262  
     237           rtu1271           rtu1271              null       toportu1271           fld1271  
     238           rtu1272           rtu1272              null       toportu1272           fld1272  
     239           rtu1281           rtu1281              null       toportu1281           fld1281  
     240           rtu1282           rtu1282              null       toportu1282           fld1282  
     241           rtu1291           rtu1291              null       toportu1291           fld1291  
     242           rtu1292           rtu1292              null       toportu1292           fld1292  
     243           rtu1301           rtu1301              null       toportu1301           fld1301  
     244           rtu1302           rtu1302              null       toportu1302           fld1302  
     245           rtu1311           rtu1311              null       toportu1311           fld1311  
     246           rtu1312           rtu1312              null       toportu1312           fld1312  
     247           rtu1321           rtu1321              null       toportu1321           fld1321  
     248           rtu1322           rtu1322              null       toportu1322           fld1322  
     249           rtu1331           rtu1331              null       toportu1331           fld1331  
     250           rtu1332           rtu1332              null       toportu1332           fld1332  
     251           rtu1341           rtu1341              null       toportu1341           fld1341  
     252           rtu1342           rtu1342              null       toportu1342           fld1342  
     253           rtu1351           rtu1351              null       toportu1351           fld1351  
     254           rtu1352           rtu1352              null       toportu1352           fld1352  
     255           rtu1361           rtu1361              null       toportu1361           fld1361  
     256           rtu1362           rtu1362              null       toportu1362           fld1362  
     257           rtu1371           rtu1371              null       toportu1371           fld1371  
     258           rtu1372           rtu1372              null       toportu1372           fld1372  
     259           rtu1381           rtu1381              null       toportu1381           fld1381  
     260           rtu1382           rtu1382              null       toportu1382           fld1382  
     261           rtu1391           rtu1391              null       toportu1391           fld1391  
     262           rtu1392           rtu1392              null       toportu1392           fld1392  
     263           rtu1401           rtu1401              null       toportu1401           fld1401  
     264           rtu1402           rtu1402              null       toportu1402           fld1402  
     265           rtu1411           rtu1411              null       toportu1411           fld1411  
     266           rtu1412           rtu1412              null       toportu1412           fld1412  
     267           rtu1421           rtu1421              null       toportu1421           fld1421  
     268           rtu1422           rtu1422              null       toportu1422           fld1422  
     269           rtu1431           rtu1431              null       toportu1431           fld1431  
     270           rtu1432           rtu1432              null       toportu1432           fld1432  
     271           rtu1441           rtu1441              null       toportu1441           fld1441  
     272           rtu1442           rtu1442              null       toportu1442           fld1442  
     273           rtu1451           rtu1451              null       toportu1451           fld1451  
     274           rtu1452           rtu1452              null       toportu1452           fld1452  
     275           rtu1461           rtu1461              null       toportu1461           fld1461  
     276           rtu1462           rtu1462              null       toportu1462           fld1462  
     277           rtu1471           rtu1471              null       toportu1471           fld1471  
     278           rtu1481           rtu1481              null       toportu1481           fld1481  
     279           rtu1491           rtu1491              null       toportu1491           fld1491  
     280           rtu1492           rtu1492              null       toportu1492           fld1492  
     281           rtu1501           rtu1501              null       toportu1501           fld1501  
     282           rtu1502           rtu1502              null       toportu1502           fld1502  
     283           rtu1511           rtu1511              null       toportu1511           fld1511  
     284           rtu1512           rtu1512              null       toportu1512           fld1512  
     285           rtu1521           rtu1521              null       toportu1521           fld1521  
     286           rtu1522           rtu1522              null       toportu1522           fld1522  
     287           rtu1531           rtu1531              null       toportu1531           fld1531  
     288           rtu1532           rtu1532              null       toportu1532           fld1532  
     289           rtu1541           rtu1541              null       toportu1541           fld1541  
     290           rtu1542           rtu1542              null       toportu1542           fld1542  
     291           rtu1551           rtu1551              null       toportu1551           fld1551  
     292           rtu1552           rtu1552              null       toportu1552           fld1552  