rout_unit.ele: written by SWAT+ editor v2.3.3 on 2023-09-24 20:21 for SWAT+ rev.60.5.7
      id  name                   obj_typ    obj_id          frac               dlr  
       1  hru00001                   hru         1     6.1694E-2                 0  
       2  hru00002                   hru         2     1.6746E-1                 0  
       3  hru00003                   hru         3     3.6723E-2                 0  
       4  hru00004                   hru         4     2.5592E-1                 0  
       5  hru00005                   hru         5     1.6671E-1                 0  
       6  hru00006                   hru         6     2.2960E-1                 0  
       7  hru00007                   hru         7     8.1895E-2                 0  
       8  hru00008                   hru         8     2.9968E-2                 0  
       9  hru00009                   hru         9     2.4644E-2                 0  
      10  hru00010                   hru        10     3.0501E-2                 0  
      11  hru00011                   hru        11     6.8238E-2                 0  
      12  hru00012                   hru        12     2.2904E-2                 0  
      13  hru00013                   hru        13     3.8367E-2                 0  
      14  hru00014                   hru        14     1.5146E-1                 0  
      15  hru00015                   hru        15     6.3348E-2                 0  
      16  hru00016                   hru        16     2.6408E-2                 0  
      17  hru00017                   hru        17     2.0151E-2                 0  
      18  hru00018                   hru        18     3.2592E-2                 0  
      19  hru00019                   hru        19     1.2550E-1                 0  
      20  hru00020                   hru        20     1.6097E-2                 0  
      21  hru00021                   hru        21     9.4187E-3                 0  
      22  hru00022                   hru        22     3.4459E-2                 0  
      23  hru00023                   hru        23     1.7086E-2                 0  
      24  hru00024                   hru        24     5.7414E-2                 0  
      25  hru00025                   hru        25     9.3384E-3                 0  
      26  hru00026                   hru        26     1.1411E-1                 0  
      27  hru00027                   hru        27     5.0183E-2                 0  
      28  hru00028                   hru        28     5.7817E-2                 0  
      29  hru00029                   hru        29     2.9711E-2                 0  
      30  hru00030                   hru        30     1.1554E-1                 0  
      31  hru00031                   hru        31     1.0754E-1                 0  
      32  hru00032                   hru        32     2.6117E-1                 0  
      33  hru00033                   hru        33     2.5559E-1                 0  
      34  hru00034                   hru        34     1.0335E-1                 0  
      35  hru00035                   hru        35     1.2709E-1                 0  
      36  hru00036                   hru        36     7.8023E-2                 0  
      37  hru00037                   hru        37     7.3774E-2                 0  
      38  hru00038                   hru        38     4.4662E-2                 0  
      39  hru00039                   hru        39     8.6612E-2                 0  
      40  hru00040                   hru        40     2.6742E-1                 0  
      41  hru00041                   hru        41     4.9334E-2                 0  
      42  hru00042                   hru        42     9.7086E-2                 0  
      43  hru00043                   hru        43     4.5307E-2                 0  
      44  hru00044                   hru        44     3.1886E-2                 0  
      45  hru00045                   hru        45     4.0640E-2                 0  
      46  hru00046                   hru        46     1.8526E-1                 0  
      47  hru00047                   hru        47     1.9551E-1                 0  
      48  hru00048                   hru        48     3.5933E-1                 0  
      49  hru00049                   hru        49     1.1457E-1                 0  
      50  hru00050                   hru        50     6.5096E-2                 0  
      51  hru00051                   hru        51     1.2552E-1                 0  
      52  hru00052                   hru        52     5.9300E-2                 0  
      53  hru00053                   hru        53     8.0672E-2                 0  
      54  hru00054                   hru        54     9.4261E-2                 0  
      55  hru00055                   hru        55     1.3564E-2                 0  
      56  hru00056                   hru        56     3.8594E-2                 0  
      57  hru00057                   hru        57     9.0637E-3                 0  
      58  hru00058                   hru        58     6.1399E-3                 0  
      59  hru00059                   hru        59     3.9091E-2                 0  
      60  hru00060                   hru        60     1.3244E-2                 0  
      61  hru00061                   hru        61     1.4739E-2                 0  
      62  hru00062                   hru        62     6.3456E-2                 0  
      63  hru00063                   hru        63     1.4829E-2                 0  
      64  hru00064                   hru        64     8.8771E-2                 0  
      65  hru00065                   hru        65     6.2112E-2                 0  
      66  hru00066                   hru        66     2.4242E-1                 0  
      67  hru00067                   hru        67     1.6072E-1                 0  
      68  hru00068                   hru        68     1.0947E-1                 0  
      69  hru00069                   hru        69     2.9529E-2                 0  
      70  hru00070                   hru        70     9.2167E-2                 0  
      71  hru00071                   hru        71     2.7757E-2                 0  
      72  hru00072                   hru        72     4.7685E-2                 0  
      73  hru00073                   hru        73     2.9180E-2                 0  
      74  hru00074                   hru        74     8.4151E-2                 0  
      75  hru00075                   hru        75     1.2443E-2                 0  
      76  hru00076                   hru        76     1.7354E-2                 0  
      77  hru00077                   hru        77     1.2770E-2                 0  
      78  hru00078                   hru        78     1.0478E-2                 0  
      79  hru00079                   hru        79     1.2115E-2                 0  
      80  hru00080                   hru        80     6.5390E-1                 0  
      81  hru00081                   hru        81     4.7288E-1                 0  
      82  hru00082                   hru        82     1.0078E-1                 0  
      83  hru00083                   hru        83     1.7138E-1                 0  
      84  hru00084                   hru        84     8.2042E-2                 0  
      85  hru00085                   hru        85     2.9041E-2                 0  
      86  hru00086                   hru        86     1.9149E-2                 0  
      87  hru00087                   hru        87     1.6260E-2                 0  
      88  hru00088                   hru        88     5.0177E-2                 0  
      89  hru00089                   hru        89     9.1978E-3                 0  
      90  hru00090                   hru        90     4.9099E-2                 0  
      91  hru00091                   hru        91     7.5504E-2                 0  
      92  hru00092                   hru        92     1.9536E-2                 0  
      93  hru00093                   hru        93     3.3792E-2                 0  
      94  hru00094                   hru        94     1.9008E-2                 0  
      95  hru00095                   hru        95     1.7619E-1                 0  
      96  hru00096                   hru        96     2.7763E-2                 0  
      97  hru00097                   hru        97     1.4272E-1                 0  
      98  hru00098                   hru        98     1.0110E-1                 0  
      99  hru00099                   hru        99     2.2099E-2                 0  
     100  hru00100                   hru       100     9.8528E-2                 0  
     101  hru00101                   hru       101     1.6378E-2                 0  
     102  hru00102                   hru       102     1.1710E-2                 0  
     103  hru00103                   hru       103     1.9761E-2                 0  
     104  hru00104                   hru       104     1.9273E-2                 0  
     105  hru00105                   hru       105     4.2449E-2                 0  
     106  hru00106                   hru       106     2.1957E-2                 0  
     107  hru00107                   hru       107     1.5858E-2                 0  
     108  hru00108                   hru       108     3.2691E-2                 0  
     109  hru00109                   hru       109     4.9280E-2                 0  
     110  hru00110                   hru       110     3.2691E-2                 0  
     111  hru00111                   hru       111     2.1713E-2                 0  
     112  hru00112                   hru       112     5.5939E-2                 0  
     113  hru00113                   hru       113     4.2317E-2                 0  
     114  hru00114                   hru       114     9.7257E-2                 0  
     115  hru00115                   hru       115     1.3184E-1                 0  
     116  hru00116                   hru       116     3.8091E-2                 0  
     117  hru00117                   hru       117     3.7906E-2                 0  
     118  hru00118                   hru       118     2.4823E-2                 0  
     119  hru00119                   hru       119     2.8623E-2                 0  
     120  hru00120                   hru       120     2.7947E-2                 0  
     121  hru00121                   hru       121     9.8786E-3                 0  
     122  hru00122                   hru       122     2.7583E-1                 0  
     123  hru00123                   hru       123     1.7749E-1                 0  
     124  hru00124                   hru       124     3.7774E-2                 0  
     125  hru00125                   hru       125     8.6631E-3                 0  
     126  hru00126                   hru       126     5.6193E-3                 0  
     127  hru00127                   hru       127     6.8986E-2                 0  
     128  hru00128                   hru       128     1.8971E-2                 0  
     129  hru00129                   hru       129     1.0348E-2                 0  
     130  hru00130                   hru       130     5.5408E-2                 0  
     131  hru00131                   hru       131     1.9661E-2                 0  
     132  hru00132                   hru       132     2.3236E-2                 0  
     133  hru00133                   hru       133     1.6365E-2                 0  
     134  hru00134                   hru       134     4.2957E-2                 0  
     135  hru00135                   hru       135     7.1186E-2                 0  
     136  hru00136                   hru       136     1.5611E-2                 0  
     137  hru00137                   hru       137     2.6762E-2                 0  
     138  hru00138                   hru       138     4.1864E-1                 0  
     139  hru00139                   hru       139     2.1186E-1                 0  
     140  hru00140                   hru       140     1.6894E-1                 0  
     141  hru00141                   hru       141     4.9689E-1                 0  
     142  hru00142                   hru       142     1.4410E-1                 0  
     143  hru00143                   hru       143     1.6909E-1                 0  
     144  hru00144                   hru       144     2.0972E-2                 0  
     145  hru00145                   hru       145     1.3019E-1                 0  
     146  hru00146                   hru       146     3.3403E-2                 0  
     147  hru00147                   hru       147     3.3213E-2                 0  
     148  hru00148                   hru       148     1.9985E-2                 0  
     149  hru00149                   hru       149     2.5029E-2                 0  
     150  hru00150                   hru       150     6.4713E-2                 0  
     151  hru00151                   hru       151     9.9978E-2                 0  
     152  hru00152                   hru       152     1.5172E-2                 0  
     153  hru00153                   hru       153     5.5482E-2                 0  
     154  hru00154                   hru       154     7.8036E-2                 0  
     155  hru00155                   hru       155     5.2341E-2                 0  
     156  hru00156                   hru       156     4.0160E-2                 0  
     157  hru00157                   hru       157     5.2436E-2                 0  
     158  hru00158                   hru       158     7.7084E-2                 0  
     159  hru00159                   hru       159     8.2223E-2                 0  
     160  hru00160                   hru       160     6.2429E-2                 0  
     161  hru00161                   hru       161     3.9684E-2                 0  
     162  hru00162                   hru       162     3.8447E-2                 0  
     163  hru00163                   hru       163     3.7986E-1                 0  
     164  hru00164                   hru       164     2.6221E-1                 0  
     165  hru00165                   hru       165     8.1120E-2                 0  
     166  hru00166                   hru       166     4.8970E-2                 0  
     167  hru00167                   hru       167     2.2784E-1                 0  
     168  hru00168                   hru       168     1.0025E-1                 0  
     169  hru00169                   hru       169     8.8402E-2                 0  
     170  hru00170                   hru       170     1.4732E-1                 0  
     171  hru00171                   hru       171     1.0716E-1                 0  
     172  hru00172                   hru       172     8.3460E-2                 0  
     173  hru00173                   hru       173     9.1770E-2                 0  
     174  hru00174                   hru       174     5.4161E-2                 0  
     175  hru00175                   hru       175     5.7063E-2                 0  
     176  hru00176                   hru       176     4.4465E-2                 0  
     177  hru00177                   hru       177     4.0024E-2                 0  
     178  hru00178                   hru       178     6.1260E-2                 0  
     179  hru00179                   hru       179     7.1114E-2                 0  
     180  hru00180                   hru       180     5.3549E-2                 0  
     181  hru00181                   hru       181     1.4043E-1                 0  
     182  hru00182                   hru       182     1.0738E-1                 0  
     183  hru00183                   hru       183     7.6978E-2                 0  
     184  hru00184                   hru       184     5.1134E-2                 0  
     185  hru00185                   hru       185     8.0042E-2                 0  
     186  hru00186                   hru       186     8.0598E-2                 0  
     187  hru00187                   hru       187     6.2345E-2                 0  
     188  hru00188                   hru       188     3.1686E-2                 0  
     189  hru00189                   hru       189     6.7826E-2                 0  
     190  hru00190                   hru       190     1.0688E-1                 0  
     191  hru00191                   hru       191     6.6729E-2                 0  
     192  hru00192                   hru       192     3.4073E-2                 0  
     193  hru00193                   hru       193     6.1873E-2                 0  
     194  hru00194                   hru       194     3.2020E-2                 0  
     195  hru00195                   hru       195     7.3927E-2                 0  
     196  hru00196                   hru       196     8.0450E-2                 0  
     197  hru00197                   hru       197     8.6430E-2                 0  
     198  hru00198                   hru       198     2.7541E-2                 0  
     199  hru00199                   hru       199     2.1722E-2                 0  
     200  hru00200                   hru       200     3.5170E-2                 0  
     201  hru00201                   hru       201     7.9649E-2                 0  
     202  hru00202                   hru       202     9.5446E-3                 0  
     203  hru00203                   hru       203     2.4052E-2                 0  
     204  hru00204                   hru       204     2.0234E-2                 0  
     205  hru00205                   hru       205     1.5144E-2                 0  
     206  hru00206                   hru       206     1.5693E-1                 0  
     207  hru00207                   hru       207     1.0596E-1                 0  
     208  hru00208                   hru       208     5.8149E-2                 0  
     209  hru00209                   hru       209     1.0206E-1                 0  
     210  hru00210                   hru       210     1.0304E-1                 0  
     211  hru00211                   hru       211     7.1987E-2                 0  
     212  hru00212                   hru       212     1.1370E-1                 0  
     213  hru00213                   hru       213     9.0747E-2                 0  
     214  hru00214                   hru       214     1.4556E-1                 0  
     215  hru00215                   hru       215     8.3498E-2                 0  
     216  hru00216                   hru       216     1.2496E-1                 0  
     217  hru00217                   hru       217     6.4174E-2                 0  
     218  hru00218                   hru       218     4.9261E-2                 0  
     219  hru00219                   hru       219     1.4482E-1                 0  
     220  hru00220                   hru       220     8.5556E-2                 0  
     221  hru00221                   hru       221     2.5732E-2                 0  
     222  hru00222                   hru       222     6.7803E-1                 0  
     223  hru00223                   hru       223     3.4552E-2                 0  
     224  hru00224                   hru       224     1.2868E-1                 0  
     225  hru00225                   hru       225     5.4858E-3                 0  
     226  hru00226                   hru       226     2.3510E-2                 0  
     227  hru00227                   hru       227     1.2974E-1                 0  
     228  hru00228                   hru       228     3.6768E-1                 0  
     229  hru00229                   hru       229     1.9259E-1                 0  
     230  hru00230                   hru       230     2.3660E-1                 0  
     231  hru00231                   hru       231     2.0313E-1                 0  
     232  hru00232                   hru       232     9.8270E-1                 0  
     233  hru00233                   hru       233     1.7298E-2                 0  
     234  hru00234                   hru       234     1.9281E-1                 0  
     235  hru00235                   hru       235     1.3747E-1                 0  
     236  hru00236                   hru       236     1.2918E-1                 0  
     237  hru00237                   hru       237     1.1636E-1                 0  
     238  hru00238                   hru       238     8.1654E-2                 0  
     239  hru00239                   hru       239     3.4252E-1                 0  
     240  hru00240                   hru       240     6.2415E-3                 0  
     241  hru00241                   hru       241     2.8731E-3                 0  
     242  hru00242                   hru       242     8.1735E-3                 0  
     243  hru00243                   hru       243     5.1022E-3                 0  
     244  hru00244                   hru       244     2.3355E-2                 0  
     245  hru00245                   hru       245     5.7968E-3                 0  
     246  hru00246                   hru       246     3.7827E-3                 0  
     247  hru00247                   hru       247     6.9267E-3                 0  
     248  hru00248                   hru       248     2.5545E-3                 0  
     249  hru00249                   hru       249     3.2336E-2                 0  
     250  hru00250                   hru       250     3.4049E-2                 0  
     251  hru00251                   hru       251     4.7648E-2                 0  
     252  hru00252                   hru       252     3.3972E-2                 0  
     253  hru00253                   hru       253     7.8719E-1                 0  
     254  hru00254                   hru       254     2.0608E-1                 0  
     255  hru00255                   hru       255     9.0491E-2                 0  
     256  hru00256                   hru       256     1.8098E-1                 0  
     257  hru00257                   hru       257     1.1771E-1                 0  
     258  hru00258                   hru       258     9.4874E-2                 0  
     259  hru00259                   hru       259     1.3901E-2                 0  
     260  hru00260                   hru       260     8.4108E-2                 0  
     261  hru00261                   hru       261     8.2701E-2                 0  
     262  hru00262                   hru       262     9.0091E-2                 0  
     263  hru00263                   hru       263     3.9063E-2                 0  
     264  hru00264                   hru       264     3.5980E-3                 0  
     265  hru00265                   hru       265     2.5103E-3                 0  
     266  hru00266                   hru       266     3.5144E-3                 0  
     267  hru00267                   hru       267     2.9694E-3                 0  
     268  hru00268                   hru       268     2.5570E-3                 0  
     269  hru00269                   hru       269     9.8979E-4                 0  
     270  hru00270                   hru       270     1.5305E-2                 0  
     271  hru00271                   hru       271     9.6856E-1                 0  
     272  hru00272                   hru       272     3.5467E-1                 0  
     273  hru00273                   hru       273     3.3434E-1                 0  
     274  hru00274                   hru       274     1.7259E-1                 0  
     275  hru00275                   hru       275     1.3840E-1                 0  
     276  hru00276                   hru       276     9.6716E-1                 0  
     277  hru00277                   hru       277     1.0214E-2                 0  
     278  hru00278                   hru       278     1.0458E-2                 0  
     279  hru00279                   hru       279     1.9685E-3                 0  
     280  hru00280                   hru       280     1.0200E-2                 0  
     281  hru00281                   hru       281     1.9695E-1                 0  
     282  hru00282                   hru       282     1.9503E-1                 0  
     283  hru00283                   hru       283     1.7849E-1                 0  
     284  hru00284                   hru       284     1.0129E-1                 0  
     285  hru00285                   hru       285     1.1508E-1                 0  
     286  hru00286                   hru       286     4.3907E-2                 0  
     287  hru00287                   hru       287     4.8404E-2                 0  
     288  hru00288                   hru       288     2.1658E-2                 0  
     289  hru00289                   hru       289     4.4617E-2                 0  
     290  hru00290                   hru       290     2.5462E-2                 0  
     291  hru00291                   hru       291     1.5553E-2                 0  
     292  hru00292                   hru       292     1.3546E-2                 0  
     293  hru00293                   hru       293     9.8025E-1                 0  
     294  hru00294                   hru       294     3.8612E-3                 0  
     295  hru00295                   hru       295     4.4553E-3                 0  
     296  hru00296                   hru       296     1.7821E-3                 0  
     297  hru00297                   hru       297     1.1881E-3                 0  
     298  hru00298                   hru       298     8.4650E-3                 0  
     299  hru00299                   hru       299     4.3855E-1                 0  
     300  hru00300                   hru       300     2.2752E-1                 0  
     301  hru00301                   hru       301     1.2530E-1                 0  
     302  hru00302                   hru       302     7.3386E-2                 0  
     303  hru00303                   hru       303     4.2983E-2                 0  
     304  hru00304                   hru       304     7.0241E-2                 0  
     305  hru00305                   hru       305     2.2016E-2                 0  
     306  hru00306                   hru       306     1.0000E+0                 0  
     307  hru00307                   hru       307     2.4853E-1                 0  
     308  hru00308                   hru       308     2.2068E-1                 0  
     309  hru00309                   hru       309     2.9709E-1                 0  
     310  hru00310                   hru       310     6.2554E-2                 0  
     311  hru00311                   hru       311     9.0180E-2                 0  
     312  hru00312                   hru       312     5.3028E-2                 0  
     313  hru00313                   hru       313     2.7943E-2                 0  
     314  hru00314                   hru       314     6.9042E-2                 0  
     315  hru00315                   hru       315     1.0325E-2                 0  
     316  hru00316                   hru       316     8.5528E-3                 0  
     317  hru00317                   hru       317     2.9896E-2                 0  
     318  hru00318                   hru       318     5.5374E-2                 0  
     319  hru00319                   hru       319     1.3995E-2                 0  
     320  hru00320                   hru       320     1.1445E-1                 0  
     321  hru00321                   hru       321     8.3215E-2                 0  
     322  hru00322                   hru       322     2.4393E-1                 0  
     323  hru00323                   hru       323     1.0351E-1                 0  
     324  hru00324                   hru       324     1.8010E-1                 0  
     325  hru00325                   hru       325     8.7610E-2                 0  
     326  hru00326                   hru       326     2.3762E-2                 0  
     327  hru00327                   hru       327     2.1385E-2                 0  
     328  hru00328                   hru       328     9.9799E-2                 0  
     329  hru00329                   hru       329     6.2927E-2                 0  
     330  hru00330                   hru       330     9.7460E-2                 0  
     331  hru00331                   hru       331     6.5997E-2                 0  
     332  hru00332                   hru       332     8.4414E-2                 0  
     333  hru00333                   hru       333     2.3980E-1                 0  
     334  hru00334                   hru       334     3.0446E-1                 0  
     335  hru00335                   hru       335     1.5899E-1                 0  
     336  hru00336                   hru       336     3.5971E-1                 0  
     337  hru00337                   hru       337     1.8921E-1                 0  
     338  hru00338                   hru       338     3.9568E-2                 0  
     339  hru00339                   hru       339     4.6307E-2                 0  
     340  hru00340                   hru       340     9.2325E-2                 0  
     341  hru00341                   hru       341     7.4805E-2                 0  
     342  hru00342                   hru       342     1.5815E-2                 0  
     343  hru00343                   hru       343     2.3269E-2                 0  
     344  hru00344                   hru       344     7.0256E-2                 0  
     345  hru00345                   hru       345     4.5641E-2                 0  
     346  hru00346                   hru       346     1.5333E-1                 0  