154159tmp.tem: Temperature data - file written by SWAT+ editor 2025-11-04 13:23:50.197252
nbyr     tstep       lat       lon      elev
  14         0    38.281    99.531  4173.000
2005    1   -6.83000   -26.78000  
2005    2   -7.63000   -28.15000  
2005    3   -6.09000   -27.09000  
2005    4   -4.18000   -24.64000  
2005    5   -4.16000   -26.09000  
2005    6   -6.12000   -26.15000  
2005    7   -9.37000   -27.68000  
2005    8   -2.71000   -22.25000  
2005    9   -1.21000   -23.36000  
2005   10   -4.64000   -21.01000  
2005   11  -10.17000   -19.02000  
2005   12  -11.85000   -27.24000  
2005   13  -11.06000   -29.65000  
2005   14  -12.41000   -30.16000  
2005   15  -12.03000   -28.12000  
2005   16  -11.70000   -26.65000  
2005   17   -9.20000   -26.33000  
2005   18  -12.14000   -24.54000  
2005   19  -13.07000   -24.22000  
2005   20  -15.58000   -24.97000  
2005   21  -16.44000   -29.89000  
2005   22  -16.33000   -30.67000  
2005   23  -14.70000   -30.33000  
2005   24  -16.10000   -27.32000  
2005   25  -14.13000   -29.44000  
2005   26  -14.69000   -29.95000  
2005   27  -15.48000   -29.49000  
2005   28  -16.03000   -28.95000  
2005   29  -19.20000   -37.06000  
2005   30  -18.05000   -38.91000  
2005   31  -16.57000   -37.85000  
2005   32  -14.79000   -36.80000  
2005   33  -16.48000   -36.17000  
2005   34  -16.77000   -37.80000  
2005   35  -14.23000   -35.10000  
2005   36  -14.12000   -36.73000  
2005   37  -12.71000   -34.37000  
2005   38  -10.52000   -32.49000  
2005   39  -11.89000   -31.83000  
2005   40  -12.17000   -28.04000  
2005   41  -14.30000   -28.32000  
2005   42  -15.36000   -29.16000  
2005   43  -15.04000   -28.78000  
2005   44  -15.62000   -32.60000  
2005   45  -10.15000   -29.52000  
2005   46   -7.86000   -31.62000  
2005   47   -9.91000   -29.36000  
2005   48  -10.56000   -29.55000  
2005   49   -9.15000   -30.00000  
2005   50   -7.38000   -31.24000  
2005   51   -6.91000   -31.03000  
2005   52   -4.17000   -28.51000  
2005   53    2.69000   -27.76000  
2005   54   -1.59000   -21.03000  
2005   55   -7.39000   -19.94000  
2005   56  -11.47000   -22.98000  
2005   57   -8.55000   -24.52000  
2005   58   -9.04000   -25.89000  
2005   59   -6.35000   -24.20000  
2005   60   -5.59000   -25.40000  
2005   61   -1.91000   -25.77000  
2005   62   -1.69000   -24.42000  
2005   63    0.74000   -20.52000  
2005   64   -1.97000   -17.44000  
2005   65   -3.62000   -18.37000  
2005   66   -3.42000   -20.84000  
2005   67   -0.69000   -19.85000  
2005   68    0.48000   -18.82000  
2005   69   -1.22000   -16.39000  
2005   70   -2.30000   -18.01000  
2005   71   -0.04000   -17.97000  
2005   72    3.95000   -19.80000  
2005   73    0.56000   -17.91000  
2005   74    2.37000   -17.92000  
2005   75    5.33000   -17.53000  
2005   76    3.05000   -16.90000  
2005   77    5.44000   -17.93000  
2005   78    3.06000   -14.53000  
2005   79   -5.13000   -15.40000  
2005   80   -2.75000   -20.42000  
2005   81   -1.30000   -21.69000  
2005   82   -0.47000   -20.15000  
2005   83   -0.74000   -18.87000  
2005   84    1.96000   -18.81000  
2005   85    1.62000   -18.25000  
2005   86    0.72000   -14.06000  
2005   87   -7.13000   -16.63000  
2005   88   -2.57000   -19.79000  
2005   89    0.58000   -17.32000  
2005   90   -5.29000   -20.88000  
2005   91   -3.56000   -21.47000  
2005   92    0.75000   -18.12000  
2005   93   -1.50000   -15.54000  
2005   94    0.37000   -15.84000  
2005   95    5.86000   -14.20000  
2005   96   13.83000   -13.71000  
2005   97    4.16000    -9.17000  
2005   98    7.15000    -7.91000  
2005   99    6.97000    -8.96000  
2005  100    5.19000    -8.41000  
2005  101   -3.38000   -12.90000  
2005  102    1.85000   -13.63000  
2005  103    2.35000   -10.88000  
2005  104    2.26000    -7.93000  
2005  105    3.27000   -10.87000  
2005  106    8.35000    -9.95000  
2005  107    9.53000    -4.41000  
2005  108    2.11000    -8.78000  
2005  109    7.12000    -8.17000  
2005  110   -2.51000   -14.59000  
2005  111   -5.49000   -14.67000  
2005  112   -4.22000   -14.32000  
2005  113    2.31000   -13.43000  
2005  114    5.23000    -9.29000  
2005  115    7.44000    -7.67000  
2005  116    2.94000    -8.20000  
2005  117    7.31000    -7.77000  
2005  118    6.59000    -5.74000  
2005  119    7.70000    -5.79000  
2005  120   11.96000    -4.94000  
2005  121    9.00000    -4.54000  
2005  122   10.25000    -6.52000  
2005  123    7.73000    -7.20000  
2005  124   12.45000    -5.80000  
2005  125   13.75000    -4.45000  
2005  126    6.99000    -3.16000  
2005  127    4.61000    -5.02000  
2005  128    2.37000   -11.09000  
2005  129    5.15000    -8.66000  
2005  130    7.91000    -8.58000  
2005  131    9.25000    -6.98000  
2005  132    9.86000    -5.52000  
2005  133   10.67000    -3.86000  
2005  134    7.65000    -4.98000  
2005  135   10.19000    -3.80000  
2005  136   10.34000    -2.87000  
2005  137    6.20000    -6.84000  
2005  138    9.03000    -5.53000  
2005  139   11.76000    -4.85000  
2005  140   10.19000    -2.99000  
2005  141    1.51000    -8.65000  
2005  142    4.96000    -7.68000  
2005  143   10.56000    -4.32000  
2005  144   10.63000    -1.77000  
2005  145   11.53000    -1.63000  
2005  146    4.44000    -2.55000  
2005  147    8.48000    -4.27000  
2005  148   10.21000    -3.02000  
2005  149    8.78000    -5.70000  
2005  150   10.99000    -2.63000  
2005  151   10.61000    -4.22000  
2005  152   10.94000    -5.59000  
2005  153   12.63000    -4.69000  
2005  154   14.51000    -3.57000  
2005  155   12.85000    -0.87000  
2005  156    9.34000    -0.69000  
2005  157    8.38000    -1.31000  
2005  158    8.96000    -1.06000  
2005  159    9.55000    -5.01000  
2005  160   13.15000    -1.73000  
2005  161   11.99000    -1.50000  
2005  162   12.05000    -3.58000  
2005  163   10.32000    -1.56000  
2005  164    8.94000    -0.96000  
2005  165    6.56000    -1.94000  
2005  166    7.80000    -4.27000  
2005  167   11.55000    -2.60000  
2005  168   12.97000    -0.02000  
2005  169   10.53000    -2.55000  
2005  170    4.30000    -0.76000  
2005  171   10.89000     0.83000  
2005  172    6.59000    -1.68000  
2005  173   10.91000    -3.54000  
2005  174   11.40000    -2.16000  
2005  175   11.63000    -0.79000  
2005  176   11.23000    -0.57000  
2005  177    8.54000    -2.90000  
2005  178   11.79000    -1.72000  
2005  179    8.24000    -1.66000  
2005  180   10.31000    -1.31000  
2005  181   11.90000    -2.05000  
2005  182   15.13000    -0.75000  
2005  183   13.96000     2.15000  
2005  184    3.74000    -1.41000  
2005  185   10.43000    -4.06000  
2005  186   13.61000    -2.22000  
2005  187   14.70000    -1.37000  
2005  188   16.64000     0.32000  
2005  189   15.11000     1.72000  
2005  190   14.64000     1.58000  
2005  191   10.25000     1.01000  
2005  192    8.94000     1.12000  
2005  193    7.50000    -0.83000  
2005  194    8.22000    -0.65000  
2005  195    9.68000    -2.21000  
2005  196   13.17000    -0.99000  
2005  197    6.32000    -2.16000  
2005  198   12.59000    -1.20000  
2005  199   11.02000    -0.64000  
2005  200   15.56000     0.35000  
2005  201   12.30000     2.90000  
2005  202   12.50000    -1.95000  
2005  203   15.27000     0.05000  
2005  204   13.69000     3.91000  
2005  205   12.55000     3.97000  
2005  206   13.71000     4.32000  
2005  207   13.39000     5.60000  
2005  208   13.82000     4.05000  
2005  209    8.94000     4.70000  
2005  210    9.94000     4.51000  
2005  211    6.56000     1.88000  
2005  212    6.76000     0.70000  
2005  213   10.76000    -0.60000  
2005  214   12.56000    -0.34000  
2005  215   14.07000     0.95000  
2005  216   15.69000     1.12000  
2005  217   15.93000     0.96000  
2005  218   14.22000     2.12000  
2005  219    4.60000    -2.35000  
2005  220   11.58000    -2.76000  
2005  221   13.05000    -1.85000  
2005  222   11.39000    -2.25000  
2005  223    4.79000    -2.26000  
2005  224    7.12000    -2.85000  
2005  225   11.83000    -2.18000  
2005  226   11.10000     0.25000  
2005  227    9.42000    -2.22000  
2005  228   12.73000    -2.72000  
2005  229   15.13000    -2.33000  
2005  230   15.97000    -0.11000  
2005  231   11.78000     2.81000  
2005  232    8.77000    -1.99000  
2005  233   12.27000    -4.36000  
2005  234   13.92000    -4.06000  
2005  235   11.71000    -1.68000  
2005  236   12.36000    -3.06000  
2005  237   11.03000    -3.35000  
2005  238    8.54000    -3.03000  
2005  239   10.68000    -2.76000  
2005  240    8.02000    -2.67000  
2005  241    6.76000    -7.17000  
2005  242    9.84000    -7.25000  
2005  243   12.28000    -6.26000  
2005  244    8.78000    -3.59000  
2005  245    6.97000    -6.84000  
2005  246    8.50000    -6.17000  
2005  247    9.89000    -3.49000  
2005  248   10.72000    -5.21000  
2005  249    7.45000    -3.74000  
2005  250   11.32000    -3.42000  
2005  251   10.87000    -3.41000  
2005  252    5.69000    -5.72000  
2005  253    8.55000    -6.56000  
2005  254    9.47000    -6.01000  
2005  255   10.91000    -4.18000  
2005  256    7.04000    -4.57000  
2005  257    9.04000    -4.52000  
2005  258    9.03000    -3.68000  
2005  259    8.98000    -4.45000  
2005  260    5.57000    -5.98000  
2005  261   11.07000    -4.60000  
2005  262   13.71000    -4.08000  
2005  263   13.83000    -2.22000  
2005  264    5.02000    -1.94000  
2005  265    6.15000    -1.62000  
2005  266    7.63000     1.73000  
2005  267    8.36000    -0.60000  
2005  268    5.23000    -0.90000  
2005  269    3.41000    -0.09000  
2005  270    3.45000    -4.31000  
2005  271    8.52000    -6.25000  
2005  272    9.10000    -6.38000  
2005  273   10.86000    -6.36000  
2005  274   11.31000    -6.25000  
2005  275   11.76000    -6.19000  
2005  276    6.11000    -6.72000  
2005  277    4.49000    -9.84000  
2005  278    5.55000   -10.01000  
2005  279    3.99000    -9.44000  
2005  280    3.12000    -6.41000  
2005  281    3.44000    -5.82000  
2005  282    2.54000    -5.84000  
2005  283    0.41000    -8.62000  
2005  284    4.34000    -9.93000  
2005  285    2.84000   -10.34000  
2005  286    3.86000    -9.90000  
2005  287    6.96000    -9.75000  
2005  288    7.20000   -10.12000  
2005  289    8.58000    -8.64000  
2005  290    0.23000    -7.47000  
2005  291    3.01000    -9.89000  
2005  292    4.50000   -10.73000  
2005  293    5.56000   -10.88000  
2005  294   -1.37000   -17.84000  
2005  295   -7.97000   -22.65000  
2005  296   -5.36000   -22.62000  
2005  297   -5.69000   -22.22000  
2005  298   -4.67000   -18.43000  
2005  299   -4.23000   -18.64000  
2005  300   -2.84000   -16.85000  
2005  301    2.01000   -15.02000  
2005  302    1.05000   -15.42000  
2005  303    0.50000   -15.71000  
2005  304    0.05000   -16.17000  
2005  305   -0.34000   -16.34000  
2005  306   -0.95000   -17.09000  
2005  307   -0.26000   -17.55000  
2005  308   -1.60000   -17.23000  
2005  309   -2.51000   -15.88000  
2005  310   -1.92000   -17.74000  
2005  311   -1.29000   -17.53000  
2005  312   -4.15000   -17.52000  
2005  313    0.08000   -17.75000  
2005  314    0.93000   -14.24000  
2005  315    0.93000   -12.50000  
2005  316   -4.15000   -17.47000  
2005  317   -3.40000   -18.46000  
2005  318   -2.93000   -21.95000  
2005  319   -4.65000   -22.35000  
2005  320   -6.68000   -22.01000  
2005  321   -7.29000   -24.75000  
2005  322   -7.14000   -25.30000  
2005  323   -5.79000   -26.23000  
2005  324   -3.15000   -23.95000  
2005  325   -5.31000   -22.25000  
2005  326   -9.29000   -22.55000  
2005  327   -6.96000   -23.45000  
2005  328   -7.61000   -24.38000  
2005  329   -7.59000   -23.91000  
2005  330   -4.84000   -25.32000  
2005  331   -4.96000   -25.12000  
2005  332   -6.28000   -23.82000  
2005  333   -6.92000   -24.53000  
2005  334   -5.20000   -23.30000  
2005  335   -5.07000   -23.02000  
2005  336   -4.76000   -22.08000  
2005  337  -10.87000   -23.46000  
2005  338   -9.77000   -27.43000  
2005  339   -6.94000   -27.93000  
2005  340   -8.62000   -23.14000  
2005  341  -10.28000   -21.63000  
2005  342   -2.74000   -23.88000  
2005  343   -4.19000   -24.27000  
2005  344   -4.31000   -25.94000  
2005  345   -6.85000   -26.39000  
2005  346   -9.58000   -23.17000  
2005  347  -12.77000   -28.84000  
2005  348  -12.78000   -29.50000  
2005  349   -8.26000   -27.90000  
2005  350   -5.26000   -26.87000  
2005  351   -3.64000   -24.47000  
2005  352   -3.67000   -24.74000  
2005  353   -1.29000   -21.16000  
2005  354   -5.50000   -24.80000  
2005  355   -8.88000   -24.61000  
2005  356   -8.56000   -24.52000  
2005  357   -6.14000   -24.43000  
2005  358   -8.39000   -21.16000  
2005  359   -5.10000   -20.91000  
2005  360   -2.51000   -19.28000  
2005  361   -6.55000   -20.38000  
2005  362   -7.40000   -27.14000  
2005  363   -9.07000   -27.74000  
2005  364   -8.69000   -29.18000  
2005  365   -7.65000   -29.36000  
2006    1   -6.83000   -26.78000  
2006    2   -7.63000   -28.15000  
2006    3   -6.09000   -27.09000  
2006    4   -4.18000   -24.64000  
2006    5   -4.16000   -26.09000  
2006    6   -6.12000   -26.15000  
2006    7   -9.37000   -27.68000  
2006    8   -2.71000   -22.25000  
2006    9   -1.21000   -23.36000  
2006   10   -4.64000   -21.01000  
2006   11  -10.17000   -19.02000  
2006   12  -11.85000   -27.24000  
2006   13  -11.06000   -29.65000  
2006   14  -12.41000   -30.16000  
2006   15  -12.03000   -28.12000  
2006   16  -11.70000   -26.65000  
2006   17   -9.20000   -26.33000  
2006   18  -12.14000   -24.54000  
2006   19  -13.07000   -24.22000  
2006   20  -15.58000   -24.97000  
2006   21  -16.44000   -29.89000  
2006   22  -16.33000   -30.67000  
2006   23  -14.70000   -30.33000  
2006   24  -16.10000   -27.32000  
2006   25  -14.13000   -29.44000  
2006   26  -14.69000   -29.95000  
2006   27  -15.48000   -29.49000  
2006   28  -16.03000   -28.95000  
2006   29  -19.20000   -37.06000  
2006   30  -18.05000   -38.91000  
2006   31  -16.57000   -37.85000  
2006   32  -14.79000   -36.80000  
2006   33  -16.48000   -36.17000  
2006   34  -16.77000   -37.80000  
2006   35  -14.23000   -35.10000  
2006   36  -14.12000   -36.73000  
2006   37  -12.71000   -34.37000  
2006   38  -10.52000   -32.49000  
2006   39  -11.89000   -31.83000  
2006   40  -12.17000   -28.04000  
2006   41  -14.30000   -28.32000  
2006   42  -15.36000   -29.16000  
2006   43  -15.04000   -28.78000  
2006   44  -15.62000   -32.60000  
2006   45  -10.15000   -29.52000  
2006   46   -7.86000   -31.62000  
2006   47   -9.91000   -29.36000  
2006   48  -10.56000   -29.55000  
2006   49   -9.15000   -30.00000  
2006   50   -7.38000   -31.24000  
2006   51   -6.91000   -31.03000  
2006   52   -4.17000   -28.51000  
2006   53    2.69000   -27.76000  
2006   54   -1.59000   -21.03000  
2006   55   -7.39000   -19.94000  
2006   56  -11.47000   -22.98000  
2006   57   -8.55000   -24.52000  
2006   58   -9.04000   -25.89000  
2006   59   -6.35000   -24.20000  
2006   60   -5.59000   -25.40000  
2006   61   -1.91000   -25.77000  
2006   62   -1.69000   -24.42000  
2006   63    0.74000   -20.52000  
2006   64   -1.97000   -17.44000  
2006   65   -3.62000   -18.37000  
2006   66   -3.42000   -20.84000  
2006   67   -0.69000   -19.85000  
2006   68    0.48000   -18.82000  
2006   69   -1.22000   -16.39000  
2006   70   -2.30000   -18.01000  
2006   71   -0.04000   -17.97000  
2006   72    3.95000   -19.80000  
2006   73    0.56000   -17.91000  
2006   74    2.37000   -17.92000  
2006   75    5.33000   -17.53000  
2006   76    3.05000   -16.90000  
2006   77    5.44000   -17.93000  
2006   78    3.06000   -14.53000  
2006   79   -5.13000   -15.40000  
2006   80   -2.75000   -20.42000  
2006   81   -1.30000   -21.69000  
2006   82   -0.47000   -20.15000  
2006   83   -0.74000   -18.87000  
2006   84    1.96000   -18.81000  
2006   85    1.62000   -18.25000  
2006   86    0.72000   -14.06000  
2006   87   -7.13000   -16.63000  
2006   88   -2.57000   -19.79000  
2006   89    0.58000   -17.32000  
2006   90   -5.29000   -20.88000  
2006   91   -3.56000   -21.47000  
2006   92    0.75000   -18.12000  
2006   93   -1.50000   -15.54000  
2006   94    0.37000   -15.84000  
2006   95    5.86000   -14.20000  
2006   96   13.83000   -13.71000  
2006   97    4.16000    -9.17000  
2006   98    7.15000    -7.91000  
2006   99    6.97000    -8.96000  
2006  100    5.19000    -8.41000  
2006  101   -3.38000   -12.90000  
2006  102    1.85000   -13.63000  
2006  103    2.35000   -10.88000  
2006  104    2.26000    -7.93000  
2006  105    3.27000   -10.87000  
2006  106    8.35000    -9.95000  
2006  107    9.53000    -4.41000  
2006  108    2.11000    -8.78000  
2006  109    7.12000    -8.17000  
2006  110   -2.51000   -14.59000  
2006  111   -5.49000   -14.67000  
2006  112   -4.22000   -14.32000  
2006  113    2.31000   -13.43000  
2006  114    5.23000    -9.29000  
2006  115    7.44000    -7.67000  
2006  116    2.94000    -8.20000  
2006  117    7.31000    -7.77000  
2006  118    6.59000    -5.74000  
2006  119    7.70000    -5.79000  
2006  120   11.96000    -4.94000  
2006  121    9.00000    -4.54000  
2006  122   10.25000    -6.52000  
2006  123    7.73000    -7.20000  
2006  124   12.45000    -5.80000  
2006  125   13.75000    -4.45000  
2006  126    6.99000    -3.16000  
2006  127    4.61000    -5.02000  
2006  128    2.37000   -11.09000  
2006  129    5.15000    -8.66000  
2006  130    7.91000    -8.58000  
2006  131    9.25000    -6.98000  
2006  132    9.86000    -5.52000  
2006  133   10.67000    -3.86000  
2006  134    7.65000    -4.98000  
2006  135   10.19000    -3.80000  
2006  136   10.34000    -2.87000  
2006  137    6.20000    -6.84000  
2006  138    9.03000    -5.53000  
2006  139   11.76000    -4.85000  
2006  140   10.19000    -2.99000  
2006  141    1.51000    -8.65000  
2006  142    4.96000    -7.68000  
2006  143   10.56000    -4.32000  
2006  144   10.63000    -1.77000  
2006  145   11.53000    -1.63000  
2006  146    4.44000    -2.55000  
2006  147    8.48000    -4.27000  
2006  148   10.21000    -3.02000  
2006  149    8.78000    -5.70000  
2006  150   10.99000    -2.63000  
2006  151   10.61000    -4.22000  
2006  152   10.94000    -5.59000  
2006  153   12.63000    -4.69000  
2006  154   14.51000    -3.57000  
2006  155   12.85000    -0.87000  
2006  156    9.34000    -0.69000  
2006  157    8.38000    -1.31000  
2006  158    8.96000    -1.06000  
2006  159    9.55000    -5.01000  
2006  160   13.15000    -1.73000  
2006  161   11.99000    -1.50000  
2006  162   12.05000    -3.58000  
2006  163   10.32000    -1.56000  
2006  164    8.94000    -0.96000  
2006  165    6.56000    -1.94000  
2006  166    7.80000    -4.27000  
2006  167   11.55000    -2.60000  
2006  168   12.97000    -0.02000  
2006  169   10.53000    -2.55000  
2006  170    4.30000    -0.76000  
2006  171   10.89000     0.83000  
2006  172    6.59000    -1.68000  
2006  173   10.91000    -3.54000  
2006  174   11.40000    -2.16000  
2006  175   11.63000    -0.79000  
2006  176   11.23000    -0.57000  
2006  177    8.54000    -2.90000  
2006  178   11.79000    -1.72000  
2006  179    8.24000    -1.66000  
2006  180   10.31000    -1.31000  
2006  181   11.90000    -2.05000  
2006  182   15.13000    -0.75000  
2006  183   13.96000     2.15000  
2006  184    3.74000    -1.41000  
2006  185   10.43000    -4.06000  
2006  186   13.61000    -2.22000  
2006  187   14.70000    -1.37000  
2006  188   16.64000     0.32000  
2006  189   15.11000     1.72000  
2006  190   14.64000     1.58000  
2006  191   10.25000     1.01000  
2006  192    8.94000     1.12000  
2006  193    7.50000    -0.83000  
2006  194    8.22000    -0.65000  
2006  195    9.68000    -2.21000  
2006  196   13.17000    -0.99000  
2006  197    6.32000    -2.16000  
2006  198   12.59000    -1.20000  
2006  199   11.02000    -0.64000  
2006  200   15.56000     0.35000  
2006  201   12.30000     2.90000  
2006  202   12.50000    -1.95000  
2006  203   15.27000     0.05000  
2006  204   13.69000     3.91000  
2006  205   12.55000     3.97000  
2006  206   13.71000     4.32000  
2006  207   13.39000     5.60000  
2006  208   13.82000     4.05000  
2006  209    8.94000     4.70000  
2006  210    9.94000     4.51000  
2006  211    6.56000     1.88000  
2006  212    6.76000     0.70000  
2006  213   10.76000    -0.60000  
2006  214   12.56000    -0.34000  
2006  215   14.07000     0.95000  
2006  216   15.69000     1.12000  
2006  217   15.93000     0.96000  
2006  218   14.22000     2.12000  
2006  219    4.60000    -2.35000  
2006  220   11.58000    -2.76000  
2006  221   13.05000    -1.85000  
2006  222   11.39000    -2.25000  
2006  223    4.79000    -2.26000  
2006  224    7.12000    -2.85000  
2006  225   11.83000    -2.18000  
2006  226   11.10000     0.25000  
2006  227    9.42000    -2.22000  
2006  228   12.73000    -2.72000  
2006  229   15.13000    -2.33000  
2006  230   15.97000    -0.11000  
2006  231   11.78000     2.81000  
2006  232    8.77000    -1.99000  
2006  233   12.27000    -4.36000  
2006  234   13.92000    -4.06000  
2006  235   11.71000    -1.68000  
2006  236   12.36000    -3.06000  
2006  237   11.03000    -3.35000  
2006  238    8.54000    -3.03000  
2006  239   10.68000    -2.76000  
2006  240    8.02000    -2.67000  
2006  241    6.76000    -7.17000  
2006  242    9.84000    -7.25000  
2006  243   12.28000    -6.26000  
2006  244    8.78000    -3.59000  
2006  245    6.97000    -6.84000  
2006  246    8.50000    -6.17000  
2006  247    9.89000    -3.49000  
2006  248   10.72000    -5.21000  
2006  249    7.45000    -3.74000  
2006  250   11.32000    -3.42000  
2006  251   10.87000    -3.41000  
2006  252    5.69000    -5.72000  
2006  253    8.55000    -6.56000  
2006  254    9.47000    -6.01000  
2006  255   10.91000    -4.18000  
2006  256    7.04000    -4.57000  
2006  257    9.04000    -4.52000  
2006  258    9.03000    -3.68000  
2006  259    8.98000    -4.45000  
2006  260    5.57000    -5.98000  
2006  261   11.07000    -4.60000  
2006  262   13.71000    -4.08000  
2006  263   13.83000    -2.22000  
2006  264    5.02000    -1.94000  
2006  265    6.15000    -1.62000  
2006  266    7.63000     1.73000  
2006  267    8.36000    -0.60000  
2006  268    5.23000    -0.90000  
2006  269    3.41000    -0.09000  
2006  270    3.45000    -4.31000  
2006  271    8.52000    -6.25000  
2006  272    9.10000    -6.38000  
2006  273   10.86000    -6.36000  
2006  274   11.31000    -6.25000  
2006  275   11.76000    -6.19000  
2006  276    6.11000    -6.72000  
2006  277    4.49000    -9.84000  
2006  278    5.55000   -10.01000  
2006  279    3.99000    -9.44000  
2006  280    3.12000    -6.41000  
2006  281    3.44000    -5.82000  
2006  282    2.54000    -5.84000  
2006  283    0.41000    -8.62000  
2006  284    4.34000    -9.93000  
2006  285    2.84000   -10.34000  
2006  286    3.86000    -9.90000  
2006  287    6.96000    -9.75000  
2006  288    7.20000   -10.12000  
2006  289    8.58000    -8.64000  
2006  290    0.23000    -7.47000  
2006  291    3.01000    -9.89000  
2006  292    4.50000   -10.73000  
2006  293    5.56000   -10.88000  
2006  294   -1.37000   -17.84000  
2006  295   -7.97000   -22.65000  
2006  296   -5.36000   -22.62000  
2006  297   -5.69000   -22.22000  
2006  298   -4.67000   -18.43000  
2006  299   -4.23000   -18.64000  
2006  300   -2.84000   -16.85000  
2006  301    2.01000   -15.02000  
2006  302    1.05000   -15.42000  
2006  303    0.50000   -15.71000  
2006  304    0.05000   -16.17000  
2006  305   -0.34000   -16.34000  
2006  306   -0.95000   -17.09000  
2006  307   -0.26000   -17.55000  
2006  308   -1.60000   -17.23000  
2006  309   -2.51000   -15.88000  
2006  310   -1.92000   -17.74000  
2006  311   -1.29000   -17.53000  
2006  312   -4.15000   -17.52000  
2006  313    0.08000   -17.75000  
2006  314    0.93000   -14.24000  
2006  315    0.93000   -12.50000  
2006  316   -4.15000   -17.47000  
2006  317   -3.40000   -18.46000  
2006  318   -2.93000   -21.95000  
2006  319   -4.65000   -22.35000  
2006  320   -6.68000   -22.01000  
2006  321   -7.29000   -24.75000  
2006  322   -7.14000   -25.30000  
2006  323   -5.79000   -26.23000  
2006  324   -3.15000   -23.95000  
2006  325   -5.31000   -22.25000  
2006  326   -9.29000   -22.55000  
2006  327   -6.96000   -23.45000  
2006  328   -7.61000   -24.38000  
2006  329   -7.59000   -23.91000  
2006  330   -4.84000   -25.32000  
2006  331   -4.96000   -25.12000  
2006  332   -6.28000   -23.82000  
2006  333   -6.92000   -24.53000  
2006  334   -5.20000   -23.30000  
2006  335   -5.07000   -23.02000  
2006  336   -4.76000   -22.08000  
2006  337  -10.87000   -23.46000  
2006  338   -9.77000   -27.43000  
2006  339   -6.94000   -27.93000  
2006  340   -8.62000   -23.14000  
2006  341  -10.28000   -21.63000  
2006  342   -2.74000   -23.88000  
2006  343   -4.19000   -24.27000  
2006  344   -4.31000   -25.94000  
2006  345   -6.85000   -26.39000  
2006  346   -9.58000   -23.17000  
2006  347  -12.77000   -28.84000  
2006  348  -12.78000   -29.50000  
2006  349   -8.26000   -27.90000  
2006  350   -5.26000   -26.87000  
2006  351   -3.64000   -24.47000  
2006  352   -3.67000   -24.74000  
2006  353   -1.29000   -21.16000  
2006  354   -5.50000   -24.80000  
2006  355   -8.88000   -24.61000  
2006  356   -8.56000   -24.52000  
2006  357   -6.14000   -24.43000  
2006  358   -8.39000   -21.16000  
2006  359   -5.10000   -20.91000  
2006  360   -2.51000   -19.28000  
2006  361   -6.55000   -20.38000  
2006  362   -7.40000   -27.14000  
2006  363   -9.07000   -27.74000  
2006  364   -8.69000   -29.18000  
2006  365   -7.65000   -29.36000  
2007    1   -6.83000   -26.78000  
2007    2   -7.63000   -28.15000  
2007    3   -6.09000   -27.09000  
2007    4   -4.18000   -24.64000  
2007    5   -4.16000   -26.09000  
2007    6   -6.12000   -26.15000  
2007    7   -9.37000   -27.68000  
2007    8   -2.71000   -22.25000  
2007    9   -1.21000   -23.36000  
2007   10   -4.64000   -21.01000  
2007   11  -10.17000   -19.02000  
2007   12  -11.85000   -27.24000  
2007   13  -11.06000   -29.65000  
2007   14  -12.41000   -30.16000  
2007   15  -12.03000   -28.12000  
2007   16  -11.70000   -26.65000  
2007   17   -9.20000   -26.33000  
2007   18  -12.14000   -24.54000  
2007   19  -13.07000   -24.22000  
2007   20  -15.58000   -24.97000  
2007   21  -16.44000   -29.89000  
2007   22  -16.33000   -30.67000  
2007   23  -14.70000   -30.33000  
2007   24  -16.10000   -27.32000  
2007   25  -14.13000   -29.44000  
2007   26  -14.69000   -29.95000  
2007   27  -15.48000   -29.49000  
2007   28  -16.03000   -28.95000  
2007   29  -19.20000   -37.06000  
2007   30  -18.05000   -38.91000  
2007   31  -16.57000   -37.85000  
2007   32  -14.79000   -36.80000  
2007   33  -16.48000   -36.17000  
2007   34  -16.77000   -37.80000  
2007   35  -14.23000   -35.10000  
2007   36  -14.12000   -36.73000  
2007   37  -12.71000   -34.37000  
2007   38  -10.52000   -32.49000  
2007   39  -11.89000   -31.83000  
2007   40  -12.17000   -28.04000  
2007   41  -14.30000   -28.32000  
2007   42  -15.36000   -29.16000  
2007   43  -15.04000   -28.78000  
2007   44  -15.62000   -32.60000  
2007   45  -10.15000   -29.52000  
2007   46   -7.86000   -31.62000  
2007   47   -9.91000   -29.36000  
2007   48  -10.56000   -29.55000  
2007   49   -9.15000   -30.00000  
2007   50   -7.38000   -31.24000  
2007   51   -6.91000   -31.03000  
2007   52   -4.17000   -28.51000  
2007   53    2.69000   -27.76000  
2007   54   -1.59000   -21.03000  
2007   55   -7.39000   -19.94000  
2007   56  -11.47000   -22.98000  
2007   57   -8.55000   -24.52000  
2007   58   -9.04000   -25.89000  
2007   59   -6.35000   -24.20000  
2007   60   -5.59000   -25.40000  
2007   61   -1.91000   -25.77000  
2007   62   -1.69000   -24.42000  
2007   63    0.74000   -20.52000  
2007   64   -1.97000   -17.44000  
2007   65   -3.62000   -18.37000  
2007   66   -3.42000   -20.84000  
2007   67   -0.69000   -19.85000  
2007   68    0.48000   -18.82000  
2007   69   -1.22000   -16.39000  
2007   70   -2.30000   -18.01000  
2007   71   -0.04000   -17.97000  
2007   72    3.95000   -19.80000  
2007   73    0.56000   -17.91000  
2007   74    2.37000   -17.92000  
2007   75    5.33000   -17.53000  
2007   76    3.05000   -16.90000  
2007   77    5.44000   -17.93000  
2007   78    3.06000   -14.53000  
2007   79   -5.13000   -15.40000  
2007   80   -2.75000   -20.42000  
2007   81   -1.30000   -21.69000  
2007   82   -0.47000   -20.15000  
2007   83   -0.74000   -18.87000  
2007   84    1.96000   -18.81000  
2007   85    1.62000   -18.25000  
2007   86    0.72000   -14.06000  
2007   87   -7.13000   -16.63000  
2007   88   -2.57000   -19.79000  
2007   89    0.58000   -17.32000  
2007   90   -5.29000   -20.88000  
2007   91   -3.56000   -21.47000  
2007   92    0.75000   -18.12000  
2007   93   -1.50000   -15.54000  
2007   94    0.37000   -15.84000  
2007   95    5.86000   -14.20000  
2007   96   13.83000   -13.71000  
2007   97    4.16000    -9.17000  
2007   98    7.15000    -7.91000  