154162tmp.tem: Temperature data - file written by SWAT+ editor 2025-11-04 13:23:50.222103
nbyr     tstep       lat       lon      elev
  14         0    38.281   100.281  3797.000
2005    1  -10.49000   -21.15000  
2005    2  -12.32000   -22.11000  
2005    3   -7.10000   -22.97000  
2005    4    1.08000   -18.38000  
2005    5   -0.01000   -24.06000  
2005    6   -6.01000   -23.77000  
2005    7   -4.05000   -21.14000  
2005    8   -1.63000   -17.28000  
2005    9    2.84000   -17.81000  
2005   10   -7.40000   -16.07000  
2005   11  -10.73000   -16.33000  
2005   12  -12.35000   -24.99000  
2005   13  -11.45000   -25.81000  
2005   14  -12.48000   -25.51000  
2005   15   -8.66000   -24.23000  
2005   16  -11.11000   -23.52000  
2005   17   -6.50000   -23.90000  
2005   18  -10.46000   -23.01000  
2005   19  -17.47000   -22.92000  
2005   20  -15.51000   -21.35000  
2005   21  -15.31000   -21.76000  
2005   22  -15.11000   -23.73000  
2005   23  -15.82000   -23.04000  
2005   24  -14.64000   -20.66000  
2005   25  -15.32000   -24.43000  
2005   26  -16.11000   -24.46000  
2005   27  -18.23000   -26.01000  
2005   28  -16.93000   -25.93000  
2005   29  -18.45000   -32.16000  
2005   30  -15.62000   -32.76000  
2005   31  -12.93000   -32.53000  
2005   32  -11.57000   -30.75000  
2005   33  -12.77000   -28.59000  
2005   34  -13.61000   -28.04000  
2005   35  -13.51000   -30.04000  
2005   36  -12.22000   -30.72000  
2005   37  -10.85000   -29.55000  
2005   38  -12.93000   -29.45000  
2005   39  -13.53000   -29.26000  
2005   40  -10.20000   -20.28000  
2005   41  -15.28000   -21.63000  
2005   42  -13.72000   -21.84000  
2005   43  -15.23000   -21.79000  
2005   44  -13.76000   -27.35000  
2005   45   -6.07000   -28.03000  
2005   46   -5.07000   -24.80000  
2005   47   -7.75000   -24.54000  
2005   48   -5.79000   -20.34000  
2005   49   -7.41000   -23.55000  
2005   50   -5.09000   -24.21000  
2005   51   -1.73000   -23.08000  
2005   52   -0.64000   -18.77000  
2005   53    6.68000   -18.97000  
2005   54   -3.52000   -14.62000  
2005   55   -8.09000   -17.39000  
2005   56  -11.21000   -21.73000  
2005   57   -8.78000   -22.39000  
2005   58   -7.32000   -17.72000  
2005   59   -3.74000   -18.13000  
2005   60   -3.28000   -19.45000  
2005   61   -0.01000   -19.96000  
2005   62    1.55000   -18.14000  
2005   63    2.67000   -16.04000  
2005   64    0.07000    -9.55000  
2005   65   -1.00000   -11.30000  
2005   66   -1.85000   -11.74000  
2005   67    0.96000   -11.41000  
2005   68    3.26000   -11.38000  
2005   69    0.65000    -8.41000  
2005   70    0.74000    -9.15000  
2005   71    0.99000   -11.63000  
2005   72    7.50000   -11.88000  
2005   73    1.51000    -9.40000  
2005   74    5.16000   -10.39000  
2005   75    8.09000   -10.83000  
2005   76    5.64000   -10.37000  
2005   77    7.97000   -10.65000  
2005   78    5.63000    -7.20000  
2005   79   -2.74000   -10.43000  
2005   80   -1.02000   -11.93000  
2005   81   -0.10000   -13.51000  
2005   82    1.84000   -13.28000  
2005   83    1.31000   -11.04000  
2005   84    4.81000   -10.90000  
2005   85    3.79000   -10.52000  
2005   86    2.26000   -10.12000  
2005   87   -5.35000   -13.19000  
2005   88   -1.42000   -13.14000  
2005   89    2.79000   -11.44000  
2005   90   -8.11000   -16.01000  
2005   91   -2.53000   -15.38000  
2005   92    2.62000   -12.30000  
2005   93   -0.25000    -7.91000  
2005   94    2.34000    -7.73000  
2005   95    7.97000    -8.94000  
2005   96   15.02000    -7.63000  
2005   97    6.85000    -3.07000  
2005   98    8.57000    -5.77000  
2005   99    7.13000    -4.84000  
2005  100    6.29000    -6.26000  
2005  101   -2.36000    -9.93000  
2005  102    1.69000    -8.69000  
2005  103    4.29000    -7.84000  
2005  104    4.25000    -4.53000  
2005  105    5.75000    -7.50000  
2005  106   12.40000    -4.69000  
2005  107   13.03000    -0.62000  
2005  108    5.19000    -4.67000  
2005  109   10.41000    -7.25000  
2005  110   -4.29000   -11.35000  
2005  111   -5.23000   -11.23000  
2005  112   -2.79000   -11.53000  
2005  113    4.76000   -10.06000  
2005  114    7.66000    -6.30000  
2005  115   10.50000    -4.09000  
2005  116    6.38000    -2.69000  
2005  117    9.59000    -3.69000  
2005  118   10.57000    -2.04000  
2005  119   10.20000    -3.66000  
2005  120   15.44000    -1.12000  
2005  121   13.47000    -0.75000  
2005  122   12.87000    -3.53000  
2005  123    9.69000    -2.12000  
2005  124   13.60000    -1.72000  
2005  125   17.42000     0.67000  
2005  126    8.25000    -0.80000  
2005  127    7.11000    -1.50000  
2005  128    4.09000    -7.82000  
2005  129    7.24000    -4.88000  
2005  130   10.42000    -6.11000  
2005  131   11.79000    -3.54000  
2005  132   12.81000    -3.03000  
2005  133   14.91000    -0.65000  
2005  134   12.02000    -1.31000  
2005  135   14.94000     1.42000  
2005  136   13.30000     2.61000  
2005  137    8.02000    -0.54000  
2005  138   11.47000    -1.47000  
2005  139   14.13000     1.66000  
2005  140   13.63000     2.08000  
2005  141    6.64000    -0.93000  
2005  142   10.76000    -1.99000  
2005  143   13.95000     0.26000  
2005  144   15.62000     2.38000  
2005  145   15.88000     3.30000  
2005  146    9.02000     1.12000  
2005  147   12.00000     4.09000  
2005  148   13.25000     3.01000  
2005  149   12.20000    -0.77000  
2005  150   15.39000     4.58000  
2005  151   14.16000     2.37000  
2005  152   13.77000    -0.33000  
2005  153   15.77000     0.16000  
2005  154   17.52000     1.23000  
2005  155   18.40000     3.91000  
2005  156   11.30000     0.75000  
2005  157   12.08000     4.24000  
2005  158   14.42000     3.07000  
2005  159   12.83000     0.01000  
2005  160   17.06000     2.65000  
2005  161   17.56000     4.80000  
2005  162   16.17000     1.49000  
2005  163   14.19000     3.57000  
2005  164   12.42000     2.93000  
2005  165    9.09000     3.01000  
2005  166   10.35000    -1.19000  
2005  167   15.63000     1.49000  
2005  168   16.26000     5.75000  
2005  169   15.46000     3.52000  
2005  170    7.47000     2.88000  
2005  171   12.83000     5.71000  
2005  172    8.57000     1.94000  
2005  173   12.51000     1.54000  
2005  174   14.44000     2.32000  
2005  175   14.54000     3.74000  
2005  176   15.39000     4.31000  
2005  177   12.57000     1.74000  
2005  178   16.94000     2.33000  
2005  179   10.04000     3.41000  
2005  180   13.54000     3.86000  
2005  181   16.14000     2.29000  
2005  182   20.00000     4.96000  
2005  183   19.29000     7.03000  
2005  184    8.22000     3.38000  
2005  185   14.17000    -0.41000  
2005  186   18.24000     3.09000  
2005  187   19.95000     5.51000  
2005  188   20.63000     6.13000  
2005  189   19.61000     7.94000  
2005  190   16.55000     5.23000  
2005  191   12.57000     3.68000  
2005  192   12.96000     4.17000  
2005  193   13.44000     3.83000  
2005  194   12.11000     1.55000  
2005  195   13.77000     0.51000  
2005  196   18.45000     3.89000  
2005  197   10.83000     4.59000  
2005  198   15.35000     2.78000  
2005  199   15.19000     0.59000  
2005  200   18.59000     3.01000  
2005  201   16.79000     9.22000  
2005  202   13.84000     0.70000  
2005  203   19.02000     4.54000  
2005  204   19.47000     7.26000  
2005  205   16.41000     9.17000  
2005  206   17.58000     7.87000  
2005  207   16.47000    10.03000  
2005  208   14.95000     7.42000  
2005  209    9.62000     7.92000  
2005  210   12.52000     6.67000  
2005  211    8.17000     5.02000  
2005  212    8.72000     4.60000  
2005  213   14.50000     5.34000  
2005  214   16.01000     2.50000  
2005  215   17.79000     2.33000  
2005  216   19.23000     4.38000  
2005  217   19.66000     5.94000  
2005  218   16.42000     6.29000  
2005  219    7.70000     1.17000  
2005  220   11.59000     0.90000  
2005  221   14.30000     3.23000  
2005  222   14.76000     3.61000  
2005  223    6.47000     1.80000  
2005  224   12.32000     1.43000  
2005  225   14.95000     4.56000  
2005  226   15.44000     4.84000  
2005  227   11.89000     2.55000  
2005  228   15.21000    -0.14000  
2005  229   17.87000     1.36000  
2005  230   20.07000     3.64000  
2005  231   15.48000     5.74000  
2005  232    9.66000     1.44000  
2005  233   14.27000    -0.43000  
2005  234   16.10000    -1.61000  
2005  235   14.30000     1.07000  
2005  236   15.45000     0.96000  
2005  237   14.51000     0.83000  
2005  238   12.69000    -0.14000  
2005  239   14.30000     1.83000  
2005  240   11.22000    -0.28000  
2005  241    7.28000    -2.81000  
2005  242   12.21000    -3.66000  
2005  243   15.05000    -2.25000  
2005  244   11.61000    -0.92000  
2005  245   10.96000    -0.89000  
2005  246   11.97000    -2.13000  
2005  247   12.81000    -2.00000  
2005  248   13.87000    -0.32000  
2005  249    9.52000    -1.41000  
2005  250   14.04000    -0.09000  
2005  251    9.95000    -1.87000  
2005  252    5.62000    -3.15000  
2005  253   11.77000    -3.22000  
2005  254   12.88000    -2.21000  
2005  255   14.75000    -1.09000  
2005  256   12.37000    -2.20000  
2005  257   11.74000    -1.52000  
2005  258   11.48000     0.23000  
2005  259   12.46000    -0.82000  
2005  260   11.57000    -2.61000  
2005  261   13.70000    -1.21000  
2005  262   15.70000    -0.46000  
2005  263   16.41000     2.68000  
2005  264    7.10000    -0.89000  
2005  265    4.84000    -0.50000  
2005  266    8.37000     3.05000  
2005  267    6.61000     1.24000  
2005  268    5.00000     1.62000  
2005  269    4.11000     1.94000  
2005  270    6.05000    -4.45000  
2005  271   11.33000    -4.02000  
2005  272   12.65000    -3.23000  
2005  273   14.14000    -2.65000  
2005  274   14.69000    -3.03000  
2005  275   13.74000    -2.53000  
2005  276    7.38000    -1.43000  
2005  277    4.31000    -6.37000  
2005  278    7.57000    -6.55000  
2005  279    5.64000    -6.59000  
2005  280    4.66000    -2.69000  
2005  281    3.97000    -3.16000  
2005  282    5.41000    -3.54000  
2005  283    3.06000    -6.53000  
2005  284    7.14000    -6.52000  
2005  285    4.66000    -6.44000  
2005  286    6.45000    -6.29000  
2005  287    7.94000    -5.71000  
2005  288    9.66000    -5.54000  
2005  289   10.18000    -5.01000  
2005  290    2.25000    -6.85000  
2005  291    6.35000    -6.96000  
2005  292    6.42000    -6.18000  
2005  293    9.32000    -5.67000  
2005  294   -0.19000   -11.83000  
2005  295   -2.90000   -15.28000  
2005  296   -0.87000   -13.75000  
2005  297   -0.01000   -13.35000  
2005  298   -0.05000   -11.85000  
2005  299    2.31000   -11.95000  
2005  300    3.64000    -9.35000  
2005  301    1.65000    -9.63000  
2005  302    1.49000   -10.93000  
2005  303    1.85000   -10.89000  
2005  304    1.16000    -7.87000  
2005  305    1.74000   -10.53000  
2005  306    1.28000   -11.75000  
2005  307    3.20000   -11.55000  
2005  308   -1.24000    -9.45000  
2005  309   -2.30000   -10.28000  
2005  310    1.81000   -12.26000  
2005  311    1.44000   -12.12000  
2005  312   -2.27000   -11.26000  
2005  313    7.37000   -10.47000  
2005  314    0.56000    -7.72000  
2005  315    1.92000    -9.91000  
2005  316   -5.95000   -11.37000  
2005  317   -4.64000   -11.83000  
2005  318   -3.91000   -16.78000  
2005  319   -4.90000   -16.94000  
2005  320   -8.14000   -15.77000  
2005  321   -8.58000   -20.86000  
2005  322   -6.93000   -20.54000  
2005  323   -3.26000   -20.14000  
2005  324   -3.23000   -19.62000  
2005  325   -5.28000   -13.97000  
2005  326   -7.30000   -17.57000  
2005  327   -5.30000   -21.19000  
2005  328   -5.90000   -20.95000  
2005  329   -6.08000   -20.73000  
2005  330   -4.81000   -18.51000  
2005  331   -4.04000   -18.96000  
2005  332   -5.75000   -19.35000  
2005  333   -3.19000   -19.41000  
2005  334   -4.46000   -19.38000  
2005  335   -2.79000   -19.14000  
2005  336   -3.45000   -18.58000  
2005  337  -15.00000   -27.33000  
2005  338   -7.96000   -24.52000  
2005  339   -6.12000   -24.15000  
2005  340   -8.71000   -21.05000  
2005  341   -9.32000   -17.79000  
2005  342   -0.20000   -19.62000  
2005  343   -3.82000   -21.84000  
2005  344   -3.17000   -21.90000  
2005  345   -0.80000   -21.40000  
2005  346   -8.53000   -21.06000  
2005  347   -6.85000   -21.56000  
2005  348   -7.70000   -23.02000  
2005  349   -2.99000   -22.93000  
2005  350   -5.18000   -21.83000  
2005  351   -0.98000   -18.53000  
2005  352    1.16000   -19.15000  
2005  353   -4.24000   -16.80000  
2005  354   -9.45000   -21.99000  
2005  355  -12.53000   -20.22000  
2005  356  -10.73000   -21.89000  
2005  357   -5.56000   -21.98000  
2005  358   -7.87000   -18.67000  
2005  359   -3.22000   -17.68000  
2005  360   -3.39000   -17.03000  
2005  361  -10.23000   -21.51000  
2005  362   -8.79000   -25.39000  
2005  363   -9.55000   -25.51000  
2005  364   -6.56000   -24.89000  
2005  365   -6.37000   -24.33000  
2006    1  -10.49000   -21.15000  
2006    2  -12.32000   -22.11000  
2006    3   -7.10000   -22.97000  
2006    4    1.08000   -18.38000  
2006    5   -0.01000   -24.06000  
2006    6   -6.01000   -23.77000  
2006    7   -4.05000   -21.14000  
2006    8   -1.63000   -17.28000  
2006    9    2.84000   -17.81000  
2006   10   -7.40000   -16.07000  
2006   11  -10.73000   -16.33000  
2006   12  -12.35000   -24.99000  
2006   13  -11.45000   -25.81000  
2006   14  -12.48000   -25.51000  
2006   15   -8.66000   -24.23000  
2006   16  -11.11000   -23.52000  
2006   17   -6.50000   -23.90000  
2006   18  -10.46000   -23.01000  
2006   19  -17.47000   -22.92000  
2006   20  -15.51000   -21.35000  
2006   21  -15.31000   -21.76000  
2006   22  -15.11000   -23.73000  
2006   23  -15.82000   -23.04000  
2006   24  -14.64000   -20.66000  
2006   25  -15.32000   -24.43000  
2006   26  -16.11000   -24.46000  
2006   27  -18.23000   -26.01000  
2006   28  -16.93000   -25.93000  
2006   29  -18.45000   -32.16000  
2006   30  -15.62000   -32.76000  
2006   31  -12.93000   -32.53000  
2006   32  -11.57000   -30.75000  
2006   33  -12.77000   -28.59000  
2006   34  -13.61000   -28.04000  
2006   35  -13.51000   -30.04000  
2006   36  -12.22000   -30.72000  
2006   37  -10.85000   -29.55000  
2006   38  -12.93000   -29.45000  
2006   39  -13.53000   -29.26000  
2006   40  -10.20000   -20.28000  
2006   41  -15.28000   -21.63000  
2006   42  -13.72000   -21.84000  
2006   43  -15.23000   -21.79000  
2006   44  -13.76000   -27.35000  
2006   45   -6.07000   -28.03000  
2006   46   -5.07000   -24.80000  
2006   47   -7.75000   -24.54000  
2006   48   -5.79000   -20.34000  
2006   49   -7.41000   -23.55000  
2006   50   -5.09000   -24.21000  
2006   51   -1.73000   -23.08000  
2006   52   -0.64000   -18.77000  
2006   53    6.68000   -18.97000  
2006   54   -3.52000   -14.62000  
2006   55   -8.09000   -17.39000  
2006   56  -11.21000   -21.73000  
2006   57   -8.78000   -22.39000  
2006   58   -7.32000   -17.72000  
2006   59   -3.74000   -18.13000  
2006   60   -3.28000   -19.45000  
2006   61   -0.01000   -19.96000  
2006   62    1.55000   -18.14000  
2006   63    2.67000   -16.04000  
2006   64    0.07000    -9.55000  
2006   65   -1.00000   -11.30000  
2006   66   -1.85000   -11.74000  
2006   67    0.96000   -11.41000  
2006   68    3.26000   -11.38000  
2006   69    0.65000    -8.41000  
2006   70    0.74000    -9.15000  
2006   71    0.99000   -11.63000  
2006   72    7.50000   -11.88000  
2006   73    1.51000    -9.40000  
2006   74    5.16000   -10.39000  
2006   75    8.09000   -10.83000  
2006   76    5.64000   -10.37000  
2006   77    7.97000   -10.65000  
2006   78    5.63000    -7.20000  
2006   79   -2.74000   -10.43000  
2006   80   -1.02000   -11.93000  
2006   81   -0.10000   -13.51000  
2006   82    1.84000   -13.28000  
2006   83    1.31000   -11.04000  
2006   84    4.81000   -10.90000  
2006   85    3.79000   -10.52000  
2006   86    2.26000   -10.12000  
2006   87   -5.35000   -13.19000  
2006   88   -1.42000   -13.14000  
2006   89    2.79000   -11.44000  
2006   90   -8.11000   -16.01000  
2006   91   -2.53000   -15.38000  
2006   92    2.62000   -12.30000  
2006   93   -0.25000    -7.91000  
2006   94    2.34000    -7.73000  
2006   95    7.97000    -8.94000  
2006   96   15.02000    -7.63000  
2006   97    6.85000    -3.07000  
2006   98    8.57000    -5.77000  
2006   99    7.13000    -4.84000  
2006  100    6.29000    -6.26000  
2006  101   -2.36000    -9.93000  
2006  102    1.69000    -8.69000  
2006  103    4.29000    -7.84000  
2006  104    4.25000    -4.53000  
2006  105    5.75000    -7.50000  
2006  106   12.40000    -4.69000  
2006  107   13.03000    -0.62000  
2006  108    5.19000    -4.67000  
2006  109   10.41000    -7.25000  
2006  110   -4.29000   -11.35000  
2006  111   -5.23000   -11.23000  
2006  112   -2.79000   -11.53000  
2006  113    4.76000   -10.06000  
2006  114    7.66000    -6.30000  
2006  115   10.50000    -4.09000  
2006  116    6.38000    -2.69000  
2006  117    9.59000    -3.69000  
2006  118   10.57000    -2.04000  
2006  119   10.20000    -3.66000  
2006  120   15.44000    -1.12000  
2006  121   13.47000    -0.75000  
2006  122   12.87000    -3.53000  
2006  123    9.69000    -2.12000  
2006  124   13.60000    -1.72000  
2006  125   17.42000     0.67000  
2006  126    8.25000    -0.80000  
2006  127    7.11000    -1.50000  
2006  128    4.09000    -7.82000  
2006  129    7.24000    -4.88000  
2006  130   10.42000    -6.11000  
2006  131   11.79000    -3.54000  
2006  132   12.81000    -3.03000  
2006  133   14.91000    -0.65000  
2006  134   12.02000    -1.31000  
2006  135   14.94000     1.42000  
2006  136   13.30000     2.61000  
2006  137    8.02000    -0.54000  
2006  138   11.47000    -1.47000  
2006  139   14.13000     1.66000  
2006  140   13.63000     2.08000  
2006  141    6.64000    -0.93000  
2006  142   10.76000    -1.99000  
2006  143   13.95000     0.26000  
2006  144   15.62000     2.38000  
2006  145   15.88000     3.30000  
2006  146    9.02000     1.12000  
2006  147   12.00000     4.09000  
2006  148   13.25000     3.01000  
2006  149   12.20000    -0.77000  
2006  150   15.39000     4.58000  
2006  151   14.16000     2.37000  
2006  152   13.77000    -0.33000  
2006  153   15.77000     0.16000  
2006  154   17.52000     1.23000  
2006  155   18.40000     3.91000  
2006  156   11.30000     0.75000  
2006  157   12.08000     4.24000  
2006  158   14.42000     3.07000  
2006  159   12.83000     0.01000  
2006  160   17.06000     2.65000  
2006  161   17.56000     4.80000  
2006  162   16.17000     1.49000  
2006  163   14.19000     3.57000  
2006  164   12.42000     2.93000  
2006  165    9.09000     3.01000  
2006  166   10.35000    -1.19000  
2006  167   15.63000     1.49000  
2006  168   16.26000     5.75000  
2006  169   15.46000     3.52000  
2006  170    7.47000     2.88000  
2006  171   12.83000     5.71000  
2006  172    8.57000     1.94000  
2006  173   12.51000     1.54000  
2006  174   14.44000     2.32000  
2006  175   14.54000     3.74000  
2006  176   15.39000     4.31000  
2006  177   12.57000     1.74000  
2006  178   16.94000     2.33000  
2006  179   10.04000     3.41000  
2006  180   13.54000     3.86000  
2006  181   16.14000     2.29000  
2006  182   20.00000     4.96000  
2006  183   19.29000     7.03000  
2006  184    8.22000     3.38000  
2006  185   14.17000    -0.41000  
2006  186   18.24000     3.09000  
2006  187   19.95000     5.51000  
2006  188   20.63000     6.13000  
2006  189   19.61000     7.94000  
2006  190   16.55000     5.23000  
2006  191   12.57000     3.68000  
2006  192   12.96000     4.17000  
2006  193   13.44000     3.83000  
2006  194   12.11000     1.55000  
2006  195   13.77000     0.51000  
2006  196   18.45000     3.89000  
2006  197   10.83000     4.59000  
2006  198   15.35000     2.78000  
2006  199   15.19000     0.59000  
2006  200   18.59000     3.01000  
2006  201   16.79000     9.22000  
2006  202   13.84000     0.70000  
2006  203   19.02000     4.54000  
2006  204   19.47000     7.26000  
2006  205   16.41000     9.17000  
2006  206   17.58000     7.87000  
2006  207   16.47000    10.03000  
2006  208   14.95000     7.42000  
2006  209    9.62000     7.92000  
2006  210   12.52000     6.67000  
2006  211    8.17000     5.02000  
2006  212    8.72000     4.60000  
2006  213   14.50000     5.34000  
2006  214   16.01000     2.50000  
2006  215   17.79000     2.33000  
2006  216   19.23000     4.38000  
2006  217   19.66000     5.94000  
2006  218   16.42000     6.29000  
2006  219    7.70000     1.17000  
2006  220   11.59000     0.90000  
2006  221   14.30000     3.23000  
2006  222   14.76000     3.61000  
2006  223    6.47000     1.80000  
2006  224   12.32000     1.43000  
2006  225   14.95000     4.56000  
2006  226   15.44000     4.84000  
2006  227   11.89000     2.55000  
2006  228   15.21000    -0.14000  
2006  229   17.87000     1.36000  
2006  230   20.07000     3.64000  
2006  231   15.48000     5.74000  
2006  232    9.66000     1.44000  
2006  233   14.27000    -0.43000  
2006  234   16.10000    -1.61000  
2006  235   14.30000     1.07000  
2006  236   15.45000     0.96000  
2006  237   14.51000     0.83000  
2006  238   12.69000    -0.14000  
2006  239   14.30000     1.83000  
2006  240   11.22000    -0.28000  
2006  241    7.28000    -2.81000  
2006  242   12.21000    -3.66000  
2006  243   15.05000    -2.25000  
2006  244   11.61000    -0.92000  
2006  245   10.96000    -0.89000  
2006  246   11.97000    -2.13000  
2006  247   12.81000    -2.00000  
2006  248   13.87000    -0.32000  
2006  249    9.52000    -1.41000  
2006  250   14.04000    -0.09000  
2006  251    9.95000    -1.87000  
2006  252    5.62000    -3.15000  
2006  253   11.77000    -3.22000  
2006  254   12.88000    -2.21000  
2006  255   14.75000    -1.09000  
2006  256   12.37000    -2.20000  
2006  257   11.74000    -1.52000  
2006  258   11.48000     0.23000  
2006  259   12.46000    -0.82000  
2006  260   11.57000    -2.61000  
2006  261   13.70000    -1.21000  
2006  262   15.70000    -0.46000  
2006  263   16.41000     2.68000  
2006  264    7.10000    -0.89000  
2006  265    4.84000    -0.50000  
2006  266    8.37000     3.05000  
2006  267    6.61000     1.24000  
2006  268    5.00000     1.62000  
2006  269    4.11000     1.94000  
2006  270    6.05000    -4.45000  
2006  271   11.33000    -4.02000  
2006  272   12.65000    -3.23000  
2006  273   14.14000    -2.65000  
2006  274   14.69000    -3.03000  
2006  275   13.74000    -2.53000  
2006  276    7.38000    -1.43000  
2006  277    4.31000    -6.37000  
2006  278    7.57000    -6.55000  
2006  279    5.64000    -6.59000  
2006  280    4.66000    -2.69000  
2006  281    3.97000    -3.16000  
2006  282    5.41000    -3.54000  
2006  283    3.06000    -6.53000  
2006  284    7.14000    -6.52000  
2006  285    4.66000    -6.44000  
2006  286    6.45000    -6.29000  
2006  287    7.94000    -5.71000  
2006  288    9.66000    -5.54000  
2006  289   10.18000    -5.01000  
2006  290    2.25000    -6.85000  
2006  291    6.35000    -6.96000  
2006  292    6.42000    -6.18000  
2006  293    9.32000    -5.67000  
2006  294   -0.19000   -11.83000  
2006  295   -2.90000   -15.28000  
2006  296   -0.87000   -13.75000  
2006  297   -0.01000   -13.35000  
2006  298   -0.05000   -11.85000  
2006  299    2.31000   -11.95000  
2006  300    3.64000    -9.35000  
2006  301    1.65000    -9.63000  
2006  302    1.49000   -10.93000  
2006  303    1.85000   -10.89000  
2006  304    1.16000    -7.87000  
2006  305    1.74000   -10.53000  
2006  306    1.28000   -11.75000  
2006  307    3.20000   -11.55000  
2006  308   -1.24000    -9.45000  
2006  309   -2.30000   -10.28000  
2006  310    1.81000   -12.26000  
2006  311    1.44000   -12.12000  
2006  312   -2.27000   -11.26000  
2006  313    7.37000   -10.47000  
2006  314    0.56000    -7.72000  
2006  315    1.92000    -9.91000  
2006  316   -5.95000   -11.37000  
2006  317   -4.64000   -11.83000  
2006  318   -3.91000   -16.78000  
2006  319   -4.90000   -16.94000  
2006  320   -8.14000   -15.77000  
2006  321   -8.58000   -20.86000  
2006  322   -6.93000   -20.54000  
2006  323   -3.26000   -20.14000  
2006  324   -3.23000   -19.62000  
2006  325   -5.28000   -13.97000  
2006  326   -7.30000   -17.57000  
2006  327   -5.30000   -21.19000  
2006  328   -5.90000   -20.95000  
2006  329   -6.08000   -20.73000  
2006  330   -4.81000   -18.51000  
2006  331   -4.04000   -18.96000  
2006  332   -5.75000   -19.35000  
2006  333   -3.19000   -19.41000  
2006  334   -4.46000   -19.38000  
2006  335   -2.79000   -19.14000  
2006  336   -3.45000   -18.58000  
2006  337  -15.00000   -27.33000  
2006  338   -7.96000   -24.52000  
2006  339   -6.12000   -24.15000  
2006  340   -8.71000   -21.05000  
2006  341   -9.32000   -17.79000  
2006  342   -0.20000   -19.62000  
2006  343   -3.82000   -21.84000  
2006  344   -3.17000   -21.90000  
2006  345   -0.80000   -21.40000  
2006  346   -8.53000   -21.06000  
2006  347   -6.85000   -21.56000  
2006  348   -7.70000   -23.02000  
2006  349   -2.99000   -22.93000  
2006  350   -5.18000   -21.83000  
2006  351   -0.98000   -18.53000  
2006  352    1.16000   -19.15000  
2006  353   -4.24000   -16.80000  
2006  354   -9.45000   -21.99000  
2006  355  -12.53000   -20.22000  
2006  356  -10.73000   -21.89000  
2006  357   -5.56000   -21.98000  
2006  358   -7.87000   -18.67000  
2006  359   -3.22000   -17.68000  
2006  360   -3.39000   -17.03000  
2006  361  -10.23000   -21.51000  
2006  362   -8.79000   -25.39000  
2006  363   -9.55000   -25.51000  
2006  364   -6.56000   -24.89000  
2006  365   -6.37000   -24.33000  
2007    1  -10.49000   -21.15000  
2007    2  -12.32000   -22.11000  
2007    3   -7.10000   -22.97000  
2007    4    1.08000   -18.38000  
2007    5   -0.01000   -24.06000  
2007    6   -6.01000   -23.77000  
2007    7   -4.05000   -21.14000  
2007    8   -1.63000   -17.28000  
2007    9    2.84000   -17.81000  
2007   10   -7.40000   -16.07000  
2007   11  -10.73000   -16.33000  
2007   12  -12.35000   -24.99000  
2007   13  -11.45000   -25.81000  
2007   14  -12.48000   -25.51000  
2007   15   -8.66000   -24.23000  
2007   16  -11.11000   -23.52000  
2007   17   -6.50000   -23.90000  
2007   18  -10.46000   -23.01000  
2007   19  -17.47000   -22.92000  
2007   20  -15.51000   -21.35000  
2007   21  -15.31000   -21.76000  
2007   22  -15.11000   -23.73000  
2007   23  -15.82000   -23.04000  
2007   24  -14.64000   -20.66000  
2007   25  -15.32000   -24.43000  
2007   26  -16.11000   -24.46000  
2007   27  -18.23000   -26.01000  
2007   28  -16.93000   -25.93000  
2007   29  -18.45000   -32.16000  
2007   30  -15.62000   -32.76000  
2007   31  -12.93000   -32.53000  
2007   32  -11.57000   -30.75000  
2007   33  -12.77000   -28.59000  
2007   34  -13.61000   -28.04000  
2007   35  -13.51000   -30.04000  
2007   36  -12.22000   -30.72000  
2007   37  -10.85000   -29.55000  
2007   38  -12.93000   -29.45000  
2007   39  -13.53000   -29.26000  
2007   40  -10.20000   -20.28000  
2007   41  -15.28000   -21.63000  
2007   42  -13.72000   -21.84000  
2007   43  -15.23000   -21.79000  
2007   44  -13.76000   -27.35000  
2007   45   -6.07000   -28.03000  
2007   46   -5.07000   -24.80000  
2007   47   -7.75000   -24.54000  
2007   48   -5.79000   -20.34000  
2007   49   -7.41000   -23.55000  
2007   50   -5.09000   -24.21000  
2007   51   -1.73000   -23.08000  
2007   52   -0.64000   -18.77000  
2007   53    6.68000   -18.97000  
2007   54   -3.52000   -14.62000  
2007   55   -8.09000   -17.39000  
2007   56  -11.21000   -21.73000  
2007   57   -8.78000   -22.39000  
2007   58   -7.32000   -17.72000  
2007   59   -3.74000   -18.13000  
2007   60   -3.28000   -19.45000  
2007   61   -0.01000   -19.96000  
2007   62    1.55000   -18.14000  
2007   63    2.67000   -16.04000  
2007   64    0.07000    -9.55000  
2007   65   -1.00000   -11.30000  
2007   66   -1.85000   -11.74000  
2007   67    0.96000   -11.41000  
2007   68    3.26000   -11.38000  
2007   69    0.65000    -8.41000  
2007   70    0.74000    -9.15000  
2007   71    0.99000   -11.63000  
2007   72    7.50000   -11.88000  
2007   73    1.51000    -9.40000  
2007   74    5.16000   -10.39000  
2007   75    8.09000   -10.83000  
2007   76    5.64000   -10.37000  
2007   77    7.97000   -10.65000  
2007   78    5.63000    -7.20000  
2007   79   -2.74000   -10.43000  
2007   80   -1.02000   -11.93000  
2007   81   -0.10000   -13.51000  
2007   82    1.84000   -13.28000  
2007   83    1.31000   -11.04000  
2007   84    4.81000   -10.90000  
2007   85    3.79000   -10.52000  
2007   86    2.26000   -10.12000  
2007   87   -5.35000   -13.19000  
2007   88   -1.42000   -13.14000  
2007   89    2.79000   -11.44000  
2007   90   -8.11000   -16.01000  
2007   91   -2.53000   -15.38000  
2007   92    2.62000   -12.30000  
2007   93   -0.25000    -7.91000  
2007   94    2.34000    -7.73000  
2007   95    7.97000    -8.94000  
2007   96   15.02000    -7.63000  
2007   97    6.85000    -3.07000  
2007   98    8.57000    -5.77000  