155156tmp.tem: Temperature data - file written by SWAT+ editor 2025-11-04 13:23:50.248140
nbyr     tstep       lat       lon      elev
  14         0    38.531    98.781  4053.000
2005    1   -9.80000   -28.29000  
2005    2  -10.66000   -29.07000  
2005    3   -8.26000   -27.62000  
2005    4   -7.96000   -23.27000  
2005    5   -6.47000   -25.20000  
2005    6   -7.64000   -24.76000  
2005    7   -9.57000   -26.15000  
2005    8   -2.66000   -22.64000  
2005    9   -4.13000   -22.72000  
2005   10   -7.04000   -21.73000  
2005   11  -11.07000   -20.18000  
2005   12  -13.18000   -28.13000  
2005   13  -12.77000   -28.57000  
2005   14  -14.02000   -28.96000  
2005   15  -14.16000   -28.76000  
2005   16  -13.15000   -27.44000  
2005   17  -11.11000   -27.56000  
2005   18  -12.50000   -24.38000  
2005   19  -14.37000   -24.58000  
2005   20  -17.16000   -26.93000  
2005   21  -17.28000   -32.66000  
2005   22  -17.55000   -32.08000  
2005   23  -18.11000   -32.88000  
2005   24  -19.20000   -30.04000  
2005   25  -16.09000   -32.52000  
2005   26  -17.98000   -32.77000  
2005   27  -17.97000   -31.91000  
2005   28  -18.89000   -31.13000  
2005   29  -20.51000   -37.71000  
2005   30  -19.87000   -38.77000  
2005   31  -18.65000   -39.31000  
2005   32  -17.71000   -37.71000  
2005   33  -17.11000   -34.53000  
2005   34  -18.87000   -36.78000  
2005   35  -15.90000   -36.32000  
2005   36  -16.07000   -35.77000  
2005   37  -14.71000   -34.42000  
2005   38  -12.44000   -33.31000  
2005   39  -15.53000   -31.07000  
2005   40  -13.52000   -31.02000  
2005   41  -15.71000   -29.72000  
2005   42  -16.92000   -31.66000  
2005   43  -17.00000   -31.06000  
2005   44  -16.49000   -33.75000  
2005   45  -11.49000   -30.14000  
2005   46  -10.19000   -30.37000  
2005   47  -10.88000   -28.74000  
2005   48  -12.38000   -26.80000  
2005   49  -10.36000   -29.05000  
2005   50   -8.26000   -28.87000  
2005   51   -8.90000   -27.66000  
2005   52   -5.19000   -27.49000  
2005   53   -0.10000   -25.70000  
2005   54   -2.96000   -20.09000  
2005   55   -9.22000   -21.27000  
2005   56  -11.65000   -22.84000  
2005   57   -8.36000   -24.00000  
2005   58   -9.87000   -24.28000  
2005   59   -6.66000   -23.44000  
2005   60   -6.43000   -23.64000  
2005   61   -2.65000   -22.87000  
2005   62   -2.13000   -22.42000  
2005   63   -0.20000   -18.38000  
2005   64   -0.97000   -16.23000  
2005   65   -4.32000   -17.44000  
2005   66   -3.23000   -20.44000  
2005   67   -1.27000   -19.30000  
2005   68   -0.65000   -16.65000  
2005   69   -0.52000   -16.92000  
2005   70   -3.39000   -17.79000  
2005   71   -0.50000   -17.92000  
2005   72    2.42000   -19.23000  
2005   73    0.29000   -18.00000  
2005   74    1.00000   -17.93000  
2005   75    3.89000   -16.61000  
2005   76    2.26000   -15.06000  
2005   77    4.00000   -14.15000  
2005   78    2.37000   -14.40000  
2005   79   -5.14000   -16.47000  
2005   80   -3.07000   -19.29000  
2005   81   -1.34000   -19.39000  
2005   82   -0.95000   -17.62000  
2005   83   -1.03000   -17.94000  
2005   84    1.57000   -16.35000  
2005   85    0.74000   -16.73000  
2005   86   -0.22000   -13.80000  
2005   87   -6.81000   -17.68000  
2005   88   -2.64000   -19.33000  
2005   89   -0.47000   -18.34000  
2005   90   -9.01000   -20.27000  
2005   91   -3.51000   -20.20000  
2005   92   -0.01000   -18.61000  
2005   93   -1.67000   -15.07000  
2005   94   -0.10000   -14.84000  
2005   95    5.10000   -14.20000  
2005   96   11.44000   -12.40000  
2005   97    2.84000    -8.34000  
2005   98    6.84000    -7.97000  
2005   99    4.99000    -8.49000  
2005  100    3.65000    -8.87000  
2005  101   -2.15000   -12.81000  
2005  102    2.53000   -12.82000  
2005  103    2.54000   -10.38000  
2005  104    2.77000    -7.45000  
2005  105    3.65000    -6.99000  
2005  106    8.83000    -6.13000  
2005  107    8.55000    -4.21000  
2005  108    2.91000    -6.83000  
2005  109    6.21000    -8.89000  
2005  110   -3.27000   -15.24000  
2005  111   -5.40000   -16.73000  
2005  112   -4.47000   -16.19000  
2005  113    1.64000   -13.09000  
2005  114    4.31000   -10.53000  
2005  115    6.33000    -6.71000  
2005  116    1.73000    -7.27000  
2005  117    6.67000    -6.28000  
2005  118    5.30000    -4.69000  
2005  119    6.63000    -5.71000  
2005  120   10.13000    -3.89000  
2005  121    9.24000    -5.98000  
2005  122    7.35000    -7.87000  
2005  123    6.83000    -6.58000  
2005  124   12.04000    -5.14000  
2005  125   12.77000    -1.75000  
2005  126    5.13000    -4.36000  
2005  127    4.19000    -6.63000  
2005  128    1.09000   -11.95000  
2005  129    5.58000    -8.36000  
2005  130    8.95000    -8.40000  
2005  131    9.69000    -6.25000  
2005  132   10.25000    -4.34000  
2005  133    9.60000    -2.24000  
2005  134    8.02000    -2.81000  
2005  135    9.12000    -1.40000  
2005  136   10.06000    -2.06000  
2005  137    7.56000    -6.54000  
2005  138   10.11000    -5.24000  
2005  139   12.13000    -4.48000  
2005  140   10.24000    -1.17000  
2005  141    2.69000    -5.55000  
2005  142    5.08000    -3.65000  
2005  143    9.87000    -3.19000  
2005  144    9.63000    -1.27000  
2005  145   11.39000    -1.28000  
2005  146    3.67000    -3.52000  
2005  147    9.14000    -4.42000  
2005  148   10.04000    -3.84000  
2005  149    9.17000    -4.84000  
2005  150   11.34000    -2.94000  
2005  151    9.69000    -2.72000  
2005  152   11.23000    -3.58000  
2005  153   12.44000    -0.53000  
2005  154   14.13000    -0.68000  
2005  155   13.35000    -0.42000  
2005  156    6.27000    -0.61000  
2005  157    8.70000     0.28000  
2005  158    7.37000     0.87000  
2005  159   11.11000    -0.66000  
2005  160   12.96000     1.36000  
2005  161   11.56000    -0.39000  
2005  162   13.19000     0.49000  
2005  163   10.36000    -1.39000  
2005  164    9.75000    -0.35000  
2005  165    8.93000    -1.30000  
2005  166    9.64000    -0.06000  
2005  167   12.91000    -1.30000  
2005  168   13.39000     1.14000  
2005  169   11.02000    -1.46000  
2005  170    4.19000    -1.40000  
2005  171   11.40000     0.39000  
2005  172    6.91000    -3.72000  
2005  173   10.77000    -2.15000  
2005  174   12.16000    -1.59000  
2005  175   11.79000     1.99000  
2005  176   12.70000     0.00000  
2005  177    9.19000    -0.02000  
2005  178   11.24000    -0.09000  
2005  179    8.54000    -0.65000  
2005  180   11.43000     1.54000  
2005  181   11.45000     1.16000  
2005  182   15.17000     1.38000  
2005  183   12.92000     2.75000  
2005  184    4.23000    -1.51000  
2005  185   10.65000    -1.06000  
2005  186   14.11000     0.86000  
2005  187   14.65000     2.20000  
2005  188   16.83000     3.92000  
2005  189   13.96000     2.24000  
2005  190   13.03000     0.48000  
2005  191    9.83000     0.60000  
2005  192    9.22000     0.86000  
2005  193    6.99000    -2.47000  
2005  194    9.18000    -1.55000  
2005  195    9.31000    -0.09000  
2005  196   12.37000     2.27000  
2005  197    7.49000    -0.54000  
2005  198   12.37000     0.60000  
2005  199   12.59000    -0.06000  
2005  200   15.60000     0.18000  
2005  201   11.81000     3.65000  
2005  202   11.55000    -1.15000  
2005  203   15.36000     2.30000  
2005  204   13.77000     3.50000  
2005  205   13.75000     4.45000  
2005  206   14.19000     3.10000  
2005  207   11.95000     4.46000  
2005  208   13.38000     4.20000  
2005  209   10.03000     3.74000  
2005  210    8.61000     3.08000  
2005  211    6.33000     0.99000  
2005  212    7.05000    -0.01000  
2005  213   10.08000     0.91000  
2005  214   12.75000     1.77000  
2005  215   13.61000     3.13000  
2005  216   15.14000     4.24000  
2005  217   16.59000     3.24000  
2005  218   13.84000     2.64000  
2005  219    3.42000     0.20000  
2005  220   11.26000    -2.36000  
2005  221   12.96000    -2.30000  
2005  222   10.09000    -0.50000  
2005  223    5.38000    -1.89000  
2005  224    8.75000    -2.82000  
2005  225   12.19000    -1.01000  
2005  226   10.55000     0.67000  
2005  227    9.34000    -1.26000  
2005  228   12.40000    -1.00000  
2005  229   15.35000     0.04000  
2005  230   16.34000     2.47000  
2005  231   10.05000     1.44000  
2005  232    9.15000    -3.90000  
2005  233   12.27000    -2.43000  
2005  234   13.88000    -2.11000  
2005  235   11.41000    -1.00000  
2005  236   12.56000    -1.55000  
2005  237   10.40000    -1.26000  
2005  238    9.05000    -1.15000  
2005  239   10.79000    -0.97000  
2005  240    6.08000    -4.62000  
2005  241    5.66000    -5.89000  
2005  242   10.16000    -4.87000  
2005  243   12.04000    -3.76000  
2005  244    8.76000    -2.69000  
2005  245    5.02000    -4.82000  
2005  246    7.31000    -4.72000  
2005  247    9.04000    -4.74000  
2005  248    9.84000    -3.79000  
2005  249    9.53000    -2.22000  
2005  250    9.80000    -1.19000  
2005  251    9.15000    -2.53000  
2005  252    6.80000    -5.32000  
2005  253    9.32000    -4.57000  
2005  254   11.07000    -3.33000  
2005  255   11.18000    -2.26000  
2005  256    8.65000    -3.90000  
2005  257   10.45000    -4.11000  
2005  258    9.95000    -2.82000  
2005  259    9.68000    -3.29000  
2005  260    6.38000    -4.78000  
2005  261   11.85000    -4.66000  
2005  262   13.14000    -3.19000  
2005  263   11.46000    -1.98000  
2005  264    6.06000    -0.58000  
2005  265    5.14000    -0.60000  
2005  266    7.42000     0.69000  
2005  267    8.08000    -0.36000  
2005  268    4.43000    -0.94000  
2005  269    1.33000    -1.11000  
2005  270    3.46000    -4.10000  
2005  271    8.07000    -5.09000  
2005  272    8.41000    -5.22000  
2005  273   10.24000    -4.53000  
2005  274   11.07000    -4.60000  
2005  275   10.73000    -4.97000  
2005  276    4.07000    -5.59000  
2005  277    3.37000    -7.47000  
2005  278    5.28000    -7.83000  
2005  279    3.06000    -8.12000  
2005  280    2.43000    -5.78000  
2005  281    1.75000    -7.24000  
2005  282    2.40000    -7.59000  
2005  283    2.34000    -8.00000  
2005  284    4.42000    -8.24000  
2005  285    3.65000    -8.58000  
2005  286    4.56000    -8.41000  
2005  287    6.28000    -7.23000  
2005  288    7.14000    -7.33000  
2005  289    8.04000    -7.80000  
2005  290   -0.73000    -7.95000  
2005  291    3.01000    -9.84000  
2005  292    4.81000   -10.22000  
2005  293    6.14000    -9.48000  
2005  294   -4.35000   -16.54000  
2005  295   -6.94000   -18.42000  
2005  296   -3.52000   -18.99000  
2005  297   -2.68000   -17.38000  
2005  298   -2.92000   -15.92000  
2005  299   -1.86000   -14.93000  
2005  300   -1.52000   -14.48000  
2005  301    2.54000   -14.18000  
2005  302    2.08000   -14.57000  
2005  303    1.72000   -15.52000  
2005  304    0.17000   -15.10000  
2005  305   -0.11000   -15.49000  
2005  306   -0.43000   -16.09000  
2005  307   -0.44000   -16.82000  
2005  308   -1.83000   -17.71000  
2005  309   -3.88000   -15.79000  
2005  310   -2.11000   -15.27000  
2005  311   -0.97000   -14.73000  
2005  312   -3.44000   -15.22000  
2005  313    2.02000   -15.74000  
2005  314    1.10000   -13.48000  
2005  315    1.06000   -12.93000  
2005  316   -4.20000   -17.44000  
2005  317   -4.18000   -18.70000  
2005  318   -3.81000   -21.43000  
2005  319   -4.89000   -22.08000  
2005  320   -8.16000   -21.88000  
2005  321   -8.16000   -24.04000  
2005  322   -7.26000   -24.12000  
2005  323   -6.53000   -23.80000  
2005  324   -4.24000   -23.38000  
2005  325   -6.54000   -22.82000  
2005  326   -9.17000   -21.68000  
2005  327   -7.66000   -22.59000  
2005  328   -7.82000   -23.16000  
2005  329   -7.96000   -21.28000  
2005  330   -5.19000   -24.33000  
2005  331   -5.44000   -24.57000  
2005  332   -7.21000   -23.04000  
2005  333   -7.45000   -23.31000  
2005  334   -6.30000   -21.22000  
2005  335   -5.40000   -22.30000  
2005  336   -6.79000   -20.85000  
2005  337  -13.96000   -25.19000  
2005  338  -10.98000   -26.92000  
2005  339   -8.24000   -27.16000  
2005  340   -9.79000   -22.63000  
2005  341  -11.16000   -21.78000  
2005  342   -4.80000   -23.80000  
2005  343   -4.70000   -23.77000  
2005  344   -5.60000   -24.65000  
2005  345   -7.26000   -25.10000  
2005  346  -10.63000   -23.76000  
2005  347  -11.94000   -25.24000  
2005  348  -11.58000   -26.67000  
2005  349   -6.08000   -25.87000  
2005  350   -5.91000   -24.79000  
2005  351   -3.82000   -22.61000  
2005  352   -3.38000   -21.26000  
2005  353   -2.33000   -18.28000  
2005  354   -7.33000   -23.77000  
2005  355   -8.79000   -24.30000  
2005  356   -8.59000   -24.26000  
2005  357   -8.11000   -23.30000  
2005  358   -8.98000   -23.36000  
2005  359   -7.53000   -23.37000  
2005  360   -3.84000   -20.11000  
2005  361   -9.47000   -21.83000  
2005  362  -10.08000   -27.21000  
2005  363  -11.19000   -27.74000  
2005  364   -9.64000   -28.77000  
2005  365  -10.32000   -28.97000  
2006    1   -9.80000   -28.29000  
2006    2  -10.66000   -29.07000  
2006    3   -8.26000   -27.62000  
2006    4   -7.96000   -23.27000  
2006    5   -6.47000   -25.20000  
2006    6   -7.64000   -24.76000  
2006    7   -9.57000   -26.15000  
2006    8   -2.66000   -22.64000  
2006    9   -4.13000   -22.72000  
2006   10   -7.04000   -21.73000  
2006   11  -11.07000   -20.18000  
2006   12  -13.18000   -28.13000  
2006   13  -12.77000   -28.57000  
2006   14  -14.02000   -28.96000  
2006   15  -14.16000   -28.76000  
2006   16  -13.15000   -27.44000  
2006   17  -11.11000   -27.56000  
2006   18  -12.50000   -24.38000  
2006   19  -14.37000   -24.58000  
2006   20  -17.16000   -26.93000  
2006   21  -17.28000   -32.66000  
2006   22  -17.55000   -32.08000  
2006   23  -18.11000   -32.88000  
2006   24  -19.20000   -30.04000  
2006   25  -16.09000   -32.52000  
2006   26  -17.98000   -32.77000  
2006   27  -17.97000   -31.91000  
2006   28  -18.89000   -31.13000  
2006   29  -20.51000   -37.71000  
2006   30  -19.87000   -38.77000  
2006   31  -18.65000   -39.31000  
2006   32  -17.71000   -37.71000  
2006   33  -17.11000   -34.53000  
2006   34  -18.87000   -36.78000  
2006   35  -15.90000   -36.32000  
2006   36  -16.07000   -35.77000  
2006   37  -14.71000   -34.42000  
2006   38  -12.44000   -33.31000  
2006   39  -15.53000   -31.07000  
2006   40  -13.52000   -31.02000  
2006   41  -15.71000   -29.72000  
2006   42  -16.92000   -31.66000  
2006   43  -17.00000   -31.06000  
2006   44  -16.49000   -33.75000  
2006   45  -11.49000   -30.14000  
2006   46  -10.19000   -30.37000  
2006   47  -10.88000   -28.74000  
2006   48  -12.38000   -26.80000  
2006   49  -10.36000   -29.05000  
2006   50   -8.26000   -28.87000  
2006   51   -8.90000   -27.66000  
2006   52   -5.19000   -27.49000  
2006   53   -0.10000   -25.70000  
2006   54   -2.96000   -20.09000  
2006   55   -9.22000   -21.27000  
2006   56  -11.65000   -22.84000  
2006   57   -8.36000   -24.00000  
2006   58   -9.87000   -24.28000  
2006   59   -6.66000   -23.44000  
2006   60   -6.43000   -23.64000  
2006   61   -2.65000   -22.87000  
2006   62   -2.13000   -22.42000  
2006   63   -0.20000   -18.38000  
2006   64   -0.97000   -16.23000  
2006   65   -4.32000   -17.44000  
2006   66   -3.23000   -20.44000  
2006   67   -1.27000   -19.30000  
2006   68   -0.65000   -16.65000  
2006   69   -0.52000   -16.92000  
2006   70   -3.39000   -17.79000  
2006   71   -0.50000   -17.92000  
2006   72    2.42000   -19.23000  
2006   73    0.29000   -18.00000  
2006   74    1.00000   -17.93000  
2006   75    3.89000   -16.61000  
2006   76    2.26000   -15.06000  
2006   77    4.00000   -14.15000  
2006   78    2.37000   -14.40000  
2006   79   -5.14000   -16.47000  
2006   80   -3.07000   -19.29000  
2006   81   -1.34000   -19.39000  
2006   82   -0.95000   -17.62000  
2006   83   -1.03000   -17.94000  
2006   84    1.57000   -16.35000  
2006   85    0.74000   -16.73000  
2006   86   -0.22000   -13.80000  
2006   87   -6.81000   -17.68000  
2006   88   -2.64000   -19.33000  
2006   89   -0.47000   -18.34000  
2006   90   -9.01000   -20.27000  
2006   91   -3.51000   -20.20000  
2006   92   -0.01000   -18.61000  
2006   93   -1.67000   -15.07000  
2006   94   -0.10000   -14.84000  
2006   95    5.10000   -14.20000  
2006   96   11.44000   -12.40000  
2006   97    2.84000    -8.34000  
2006   98    6.84000    -7.97000  
2006   99    4.99000    -8.49000  
2006  100    3.65000    -8.87000  
2006  101   -2.15000   -12.81000  
2006  102    2.53000   -12.82000  
2006  103    2.54000   -10.38000  
2006  104    2.77000    -7.45000  
2006  105    3.65000    -6.99000  
2006  106    8.83000    -6.13000  
2006  107    8.55000    -4.21000  
2006  108    2.91000    -6.83000  
2006  109    6.21000    -8.89000  
2006  110   -3.27000   -15.24000  
2006  111   -5.40000   -16.73000  
2006  112   -4.47000   -16.19000  
2006  113    1.64000   -13.09000  
2006  114    4.31000   -10.53000  
2006  115    6.33000    -6.71000  
2006  116    1.73000    -7.27000  
2006  117    6.67000    -6.28000  
2006  118    5.30000    -4.69000  
2006  119    6.63000    -5.71000  
2006  120   10.13000    -3.89000  
2006  121    9.24000    -5.98000  
2006  122    7.35000    -7.87000  
2006  123    6.83000    -6.58000  
2006  124   12.04000    -5.14000  
2006  125   12.77000    -1.75000  
2006  126    5.13000    -4.36000  
2006  127    4.19000    -6.63000  
2006  128    1.09000   -11.95000  
2006  129    5.58000    -8.36000  
2006  130    8.95000    -8.40000  
2006  131    9.69000    -6.25000  
2006  132   10.25000    -4.34000  
2006  133    9.60000    -2.24000  
2006  134    8.02000    -2.81000  
2006  135    9.12000    -1.40000  
2006  136   10.06000    -2.06000  
2006  137    7.56000    -6.54000  
2006  138   10.11000    -5.24000  
2006  139   12.13000    -4.48000  
2006  140   10.24000    -1.17000  
2006  141    2.69000    -5.55000  
2006  142    5.08000    -3.65000  
2006  143    9.87000    -3.19000  
2006  144    9.63000    -1.27000  
2006  145   11.39000    -1.28000  
2006  146    3.67000    -3.52000  
2006  147    9.14000    -4.42000  
2006  148   10.04000    -3.84000  
2006  149    9.17000    -4.84000  
2006  150   11.34000    -2.94000  
2006  151    9.69000    -2.72000  
2006  152   11.23000    -3.58000  
2006  153   12.44000    -0.53000  
2006  154   14.13000    -0.68000  
2006  155   13.35000    -0.42000  
2006  156    6.27000    -0.61000  
2006  157    8.70000     0.28000  
2006  158    7.37000     0.87000  
2006  159   11.11000    -0.66000  
2006  160   12.96000     1.36000  
2006  161   11.56000    -0.39000  
2006  162   13.19000     0.49000  
2006  163   10.36000    -1.39000  
2006  164    9.75000    -0.35000  
2006  165    8.93000    -1.30000  
2006  166    9.64000    -0.06000  
2006  167   12.91000    -1.30000  
2006  168   13.39000     1.14000  
2006  169   11.02000    -1.46000  
2006  170    4.19000    -1.40000  
2006  171   11.40000     0.39000  
2006  172    6.91000    -3.72000  
2006  173   10.77000    -2.15000  
2006  174   12.16000    -1.59000  
2006  175   11.79000     1.99000  
2006  176   12.70000     0.00000  
2006  177    9.19000    -0.02000  
2006  178   11.24000    -0.09000  
2006  179    8.54000    -0.65000  
2006  180   11.43000     1.54000  
2006  181   11.45000     1.16000  
2006  182   15.17000     1.38000  
2006  183   12.92000     2.75000  
2006  184    4.23000    -1.51000  
2006  185   10.65000    -1.06000  
2006  186   14.11000     0.86000  
2006  187   14.65000     2.20000  
2006  188   16.83000     3.92000  
2006  189   13.96000     2.24000  
2006  190   13.03000     0.48000  
2006  191    9.83000     0.60000  
2006  192    9.22000     0.86000  
2006  193    6.99000    -2.47000  
2006  194    9.18000    -1.55000  
2006  195    9.31000    -0.09000  
2006  196   12.37000     2.27000  
2006  197    7.49000    -0.54000  
2006  198   12.37000     0.60000  
2006  199   12.59000    -0.06000  
2006  200   15.60000     0.18000  
2006  201   11.81000     3.65000  
2006  202   11.55000    -1.15000  
2006  203   15.36000     2.30000  
2006  204   13.77000     3.50000  
2006  205   13.75000     4.45000  
2006  206   14.19000     3.10000  
2006  207   11.95000     4.46000  
2006  208   13.38000     4.20000  
2006  209   10.03000     3.74000  
2006  210    8.61000     3.08000  
2006  211    6.33000     0.99000  
2006  212    7.05000    -0.01000  
2006  213   10.08000     0.91000  
2006  214   12.75000     1.77000  
2006  215   13.61000     3.13000  
2006  216   15.14000     4.24000  
2006  217   16.59000     3.24000  
2006  218   13.84000     2.64000  
2006  219    3.42000     0.20000  
2006  220   11.26000    -2.36000  
2006  221   12.96000    -2.30000  
2006  222   10.09000    -0.50000  
2006  223    5.38000    -1.89000  
2006  224    8.75000    -2.82000  
2006  225   12.19000    -1.01000  
2006  226   10.55000     0.67000  
2006  227    9.34000    -1.26000  
2006  228   12.40000    -1.00000  
2006  229   15.35000     0.04000  
2006  230   16.34000     2.47000  
2006  231   10.05000     1.44000  
2006  232    9.15000    -3.90000  
2006  233   12.27000    -2.43000  
2006  234   13.88000    -2.11000  
2006  235   11.41000    -1.00000  
2006  236   12.56000    -1.55000  
2006  237   10.40000    -1.26000  
2006  238    9.05000    -1.15000  
2006  239   10.79000    -0.97000  
2006  240    6.08000    -4.62000  
2006  241    5.66000    -5.89000  
2006  242   10.16000    -4.87000  
2006  243   12.04000    -3.76000  
2006  244    8.76000    -2.69000  
2006  245    5.02000    -4.82000  
2006  246    7.31000    -4.72000  
2006  247    9.04000    -4.74000  
2006  248    9.84000    -3.79000  
2006  249    9.53000    -2.22000  
2006  250    9.80000    -1.19000  
2006  251    9.15000    -2.53000  
2006  252    6.80000    -5.32000  
2006  253    9.32000    -4.57000  
2006  254   11.07000    -3.33000  
2006  255   11.18000    -2.26000  
2006  256    8.65000    -3.90000  
2006  257   10.45000    -4.11000  
2006  258    9.95000    -2.82000  
2006  259    9.68000    -3.29000  
2006  260    6.38000    -4.78000  
2006  261   11.85000    -4.66000  
2006  262   13.14000    -3.19000  
2006  263   11.46000    -1.98000  
2006  264    6.06000    -0.58000  
2006  265    5.14000    -0.60000  
2006  266    7.42000     0.69000  
2006  267    8.08000    -0.36000  
2006  268    4.43000    -0.94000  
2006  269    1.33000    -1.11000  
2006  270    3.46000    -4.10000  
2006  271    8.07000    -5.09000  
2006  272    8.41000    -5.22000  
2006  273   10.24000    -4.53000  
2006  274   11.07000    -4.60000  
2006  275   10.73000    -4.97000  
2006  276    4.07000    -5.59000  
2006  277    3.37000    -7.47000  
2006  278    5.28000    -7.83000  
2006  279    3.06000    -8.12000  
2006  280    2.43000    -5.78000  
2006  281    1.75000    -7.24000  
2006  282    2.40000    -7.59000  
2006  283    2.34000    -8.00000  
2006  284    4.42000    -8.24000  
2006  285    3.65000    -8.58000  
2006  286    4.56000    -8.41000  
2006  287    6.28000    -7.23000  
2006  288    7.14000    -7.33000  
2006  289    8.04000    -7.80000  
2006  290   -0.73000    -7.95000  
2006  291    3.01000    -9.84000  
2006  292    4.81000   -10.22000  
2006  293    6.14000    -9.48000  
2006  294   -4.35000   -16.54000  
2006  295   -6.94000   -18.42000  
2006  296   -3.52000   -18.99000  
2006  297   -2.68000   -17.38000  
2006  298   -2.92000   -15.92000  
2006  299   -1.86000   -14.93000  
2006  300   -1.52000   -14.48000  
2006  301    2.54000   -14.18000  
2006  302    2.08000   -14.57000  
2006  303    1.72000   -15.52000  
2006  304    0.17000   -15.10000  
2006  305   -0.11000   -15.49000  
2006  306   -0.43000   -16.09000  
2006  307   -0.44000   -16.82000  
2006  308   -1.83000   -17.71000  
2006  309   -3.88000   -15.79000  
2006  310   -2.11000   -15.27000  
2006  311   -0.97000   -14.73000  
2006  312   -3.44000   -15.22000  
2006  313    2.02000   -15.74000  
2006  314    1.10000   -13.48000  
2006  315    1.06000   -12.93000  
2006  316   -4.20000   -17.44000  
2006  317   -4.18000   -18.70000  
2006  318   -3.81000   -21.43000  
2006  319   -4.89000   -22.08000  
2006  320   -8.16000   -21.88000  
2006  321   -8.16000   -24.04000  
2006  322   -7.26000   -24.12000  
2006  323   -6.53000   -23.80000  
2006  324   -4.24000   -23.38000  
2006  325   -6.54000   -22.82000  
2006  326   -9.17000   -21.68000  
2006  327   -7.66000   -22.59000  
2006  328   -7.82000   -23.16000  
2006  329   -7.96000   -21.28000  
2006  330   -5.19000   -24.33000  
2006  331   -5.44000   -24.57000  
2006  332   -7.21000   -23.04000  
2006  333   -7.45000   -23.31000  
2006  334   -6.30000   -21.22000  
2006  335   -5.40000   -22.30000  
2006  336   -6.79000   -20.85000  
2006  337  -13.96000   -25.19000  
2006  338  -10.98000   -26.92000  
2006  339   -8.24000   -27.16000  
2006  340   -9.79000   -22.63000  
2006  341  -11.16000   -21.78000  
2006  342   -4.80000   -23.80000  
2006  343   -4.70000   -23.77000  
2006  344   -5.60000   -24.65000  
2006  345   -7.26000   -25.10000  
2006  346  -10.63000   -23.76000  
2006  347  -11.94000   -25.24000  
2006  348  -11.58000   -26.67000  
2006  349   -6.08000   -25.87000  
2006  350   -5.91000   -24.79000  
2006  351   -3.82000   -22.61000  
2006  352   -3.38000   -21.26000  
2006  353   -2.33000   -18.28000  
2006  354   -7.33000   -23.77000  
2006  355   -8.79000   -24.30000  
2006  356   -8.59000   -24.26000  
2006  357   -8.11000   -23.30000  
2006  358   -8.98000   -23.36000  
2006  359   -7.53000   -23.37000  
2006  360   -3.84000   -20.11000  
2006  361   -9.47000   -21.83000  
2006  362  -10.08000   -27.21000  
2006  363  -11.19000   -27.74000  
2006  364   -9.64000   -28.77000  
2006  365  -10.32000   -28.97000  
2007    1   -9.80000   -28.29000  
2007    2  -10.66000   -29.07000  
2007    3   -8.26000   -27.62000  
2007    4   -7.96000   -23.27000  
2007    5   -6.47000   -25.20000  
2007    6   -7.64000   -24.76000  
2007    7   -9.57000   -26.15000  
2007    8   -2.66000   -22.64000  
2007    9   -4.13000   -22.72000  
2007   10   -7.04000   -21.73000  
2007   11  -11.07000   -20.18000  
2007   12  -13.18000   -28.13000  
2007   13  -12.77000   -28.57000  
2007   14  -14.02000   -28.96000  
2007   15  -14.16000   -28.76000  
2007   16  -13.15000   -27.44000  
2007   17  -11.11000   -27.56000  
2007   18  -12.50000   -24.38000  
2007   19  -14.37000   -24.58000  
2007   20  -17.16000   -26.93000  
2007   21  -17.28000   -32.66000  
2007   22  -17.55000   -32.08000  
2007   23  -18.11000   -32.88000  
2007   24  -19.20000   -30.04000  
2007   25  -16.09000   -32.52000  
2007   26  -17.98000   -32.77000  
2007   27  -17.97000   -31.91000  
2007   28  -18.89000   -31.13000  
2007   29  -20.51000   -37.71000  
2007   30  -19.87000   -38.77000  
2007   31  -18.65000   -39.31000  
2007   32  -17.71000   -37.71000  
2007   33  -17.11000   -34.53000  
2007   34  -18.87000   -36.78000  
2007   35  -15.90000   -36.32000  
2007   36  -16.07000   -35.77000  
2007   37  -14.71000   -34.42000  
2007   38  -12.44000   -33.31000  
2007   39  -15.53000   -31.07000  
2007   40  -13.52000   -31.02000  
2007   41  -15.71000   -29.72000  
2007   42  -16.92000   -31.66000  
2007   43  -17.00000   -31.06000  
2007   44  -16.49000   -33.75000  
2007   45  -11.49000   -30.14000  
2007   46  -10.19000   -30.37000  
2007   47  -10.88000   -28.74000  
2007   48  -12.38000   -26.80000  
2007   49  -10.36000   -29.05000  
2007   50   -8.26000   -28.87000  
2007   51   -8.90000   -27.66000  
2007   52   -5.19000   -27.49000  
2007   53   -0.10000   -25.70000  
2007   54   -2.96000   -20.09000  
2007   55   -9.22000   -21.27000  
2007   56  -11.65000   -22.84000  
2007   57   -8.36000   -24.00000  
2007   58   -9.87000   -24.28000  
2007   59   -6.66000   -23.44000  
2007   60   -6.43000   -23.64000  
2007   61   -2.65000   -22.87000  
2007   62   -2.13000   -22.42000  
2007   63   -0.20000   -18.38000  
2007   64   -0.97000   -16.23000  
2007   65   -4.32000   -17.44000  
2007   66   -3.23000   -20.44000  
2007   67   -1.27000   -19.30000  
2007   68   -0.65000   -16.65000  
2007   69   -0.52000   -16.92000  
2007   70   -3.39000   -17.79000  
2007   71   -0.50000   -17.92000  
2007   72    2.42000   -19.23000  
2007   73    0.29000   -18.00000  
2007   74    1.00000   -17.93000  
2007   75    3.89000   -16.61000  
2007   76    2.26000   -15.06000  
2007   77    4.00000   -14.15000  
2007   78    2.37000   -14.40000  
2007   79   -5.14000   -16.47000  
2007   80   -3.07000   -19.29000  
2007   81   -1.34000   -19.39000  
2007   82   -0.95000   -17.62000  
2007   83   -1.03000   -17.94000  
2007   84    1.57000   -16.35000  
2007   85    0.74000   -16.73000  
2007   86   -0.22000   -13.80000  
2007   87   -6.81000   -17.68000  
2007   88   -2.64000   -19.33000  
2007   89   -0.47000   -18.34000  
2007   90   -9.01000   -20.27000  
2007   91   -3.51000   -20.20000  
2007   92   -0.01000   -18.61000  
2007   93   -1.67000   -15.07000  
2007   94   -0.10000   -14.84000  
2007   95    5.10000   -14.20000  
2007   96   11.44000   -12.40000  
2007   97    2.84000    -8.34000  
2007   98    6.84000    -7.97000  