156164tmp.tem: Temperature data - file written by SWAT+ editor 2025-11-04 13:23:50.274722
nbyr     tstep       lat       lon      elev
  14         0    38.781   100.781  1641.000
2005    1   -3.90000   -17.25000  
2005    2   -4.92000   -16.30000  
2005    3   -3.84000   -15.84000  
2005    4   11.06000   -10.71000  
2005    5    3.48000   -14.31000  
2005    6   -0.70000   -15.09000  
2005    7    3.39000   -11.89000  
2005    8    7.22000   -10.20000  
2005    9    0.65000   -11.89000  
2005   10   -2.47000   -11.68000  
2005   11   -4.57000   -10.37000  
2005   12   -6.72000   -14.94000  
2005   13   -3.59000   -16.42000  
2005   14   -4.71000   -15.86000  
2005   15   -4.55000   -14.63000  
2005   16   -4.50000   -16.35000  
2005   17   -3.98000   -15.92000  
2005   18   -8.43000   -15.33000  
2005   19   -9.64000   -16.03000  
2005   20   -8.73000   -17.03000  
2005   21  -10.59000   -21.09000  
2005   22   -8.54000   -21.61000  
2005   23  -13.85000   -21.58000  
2005   24  -17.34000   -21.78000  
2005   25  -16.34000   -22.21000  
2005   26  -14.07000   -22.54000  
2005   27  -12.88000   -22.85000  
2005   28  -10.95000   -22.37000  
2005   29  -11.36000   -22.46000  
2005   30  -10.03000   -24.90000  
2005   31   -8.61000   -22.78000  
2005   32   -5.42000   -23.07000  
2005   33   -5.26000   -14.91000  
2005   34   -6.19000   -23.41000  
2005   35   -5.69000   -22.47000  
2005   36   -6.44000   -19.76000  
2005   37   -6.23000   -22.31000  
2005   38   -9.14000   -22.76000  
2005   39   -9.14000   -21.66000  
2005   40   -2.14000   -17.58000  
2005   41   -7.35000   -17.97000  
2005   42   -5.06000   -18.03000  
2005   43   -9.65000   -18.62000  
2005   44   -4.03000   -19.28000  
2005   45    1.29000   -19.53000  
2005   46    1.72000   -15.19000  
2005   47   -4.38000   -14.83000  
2005   48   -0.85000   -12.15000  
2005   49    2.58000   -10.69000  
2005   50    7.33000    -8.88000  
2005   51    7.10000    -8.71000  
2005   52    9.21000    -3.25000  
2005   53   19.91000    -2.16000  
2005   54    2.57000    -3.25000  
2005   55   -0.34000    -7.17000  
2005   56    1.17000    -8.57000  
2005   57    3.11000    -8.67000  
2005   58    4.62000    -7.99000  
2005   59    9.08000    -4.81000  
2005   60    7.98000    -5.29000  
2005   61   13.38000    -4.00000  
2005   62   13.23000    -2.72000  
2005   63   14.53000    -0.22000  
2005   64    9.76000    -1.04000  
2005   65    9.98000    -1.65000  
2005   66   11.25000    -1.06000  
2005   67   12.95000    -1.61000  
2005   68   14.65000    -0.03000  
2005   69   14.31000    -0.32000  
2005   70   13.65000     0.58000  
2005   71   12.53000    -0.02000  
2005   72   20.27000     0.58000  
2005   73   11.57000    -0.18000  
2005   74   17.08000     0.03000  
2005   75   20.48000     2.92000  
2005   76   18.60000     2.37000  
2005   77   20.52000     2.82000  
2005   78   12.03000     2.19000  
2005   79    8.78000    -2.45000  
2005   80   12.03000    -3.40000  
2005   81   12.89000    -3.03000  
2005   82   15.04000    -1.05000  
2005   83   16.07000    -0.00000  
2005   84   17.51000     1.89000  
2005   85   16.44000     1.14000  
2005   86   12.19000    -0.95000  
2005   87    5.44000    -2.63000  
2005   88   11.67000    -1.72000  
2005   89   14.92000    -2.44000  
2005   90    3.29000    -5.38000  
2005   91    9.36000    -2.98000  
2005   92   14.14000    -0.70000  
2005   93   14.51000     0.74000  
2005   94   17.08000     1.96000  
2005   95   18.86000     4.27000  
2005   96   25.30000     4.45000  
2005   97   17.85000     5.43000  
2005   98   21.51000     6.20000  
2005   99   17.92000     6.20000  
2005  100   18.03000     3.19000  
2005  101   10.48000     1.95000  
2005  102   14.27000     2.85000  
2005  103   17.45000     5.29000  
2005  104   18.19000     7.01000  
2005  105   21.22000     8.33000  
2005  106   27.25000    10.64000  
2005  107   26.23000    12.54000  
2005  108   17.45000     7.49000  
2005  109   22.36000    -0.08000  
2005  110    5.04000    -1.09000  
2005  111    5.40000    -0.25000  
2005  112   10.04000     0.07000  
2005  113   17.19000     1.64000  
2005  114   20.51000     5.48000  
2005  115   23.86000     7.60000  
2005  116   20.86000     7.85000  
2005  117   23.33000     9.05000  
2005  118   24.59000    11.02000  
2005  119   22.08000    10.78000  
2005  120   28.46000    12.90000  
2005  121   23.53000    10.41000  
2005  122   22.00000     6.47000  
2005  123   19.99000     7.22000  
2005  124   24.78000     9.41000  
2005  125   29.89000    13.76000  
2005  126   20.48000    11.06000  
2005  127   21.44000    12.29000  
2005  128   17.12000     5.08000  
2005  129   19.77000     6.24000  
2005  130   23.83000     8.18000  
2005  131   24.03000     8.52000  
2005  132   25.08000     9.67000  
2005  133   26.67000    13.28000  
2005  134   27.52000    12.73000  
2005  135   29.79000    14.51000  
2005  136   29.59000    14.01000  
2005  137   22.95000    11.23000  
2005  138   23.55000     8.18000  
2005  139   26.15000    10.10000  
2005  140   25.96000    14.45000  
2005  141   20.44000     9.61000  
2005  142   25.47000    11.20000  
2005  143   28.20000    14.29000  
2005  144   29.92000    15.99000  
2005  145   30.94000    15.95000  
2005  146   19.25000    11.45000  
2005  147   27.08000    11.82000  
2005  148   25.82000    11.88000  
2005  149   25.80000     9.66000  
2005  150   27.89000    12.44000  
2005  151   28.48000    15.26000  
2005  152   28.66000    11.92000  
2005  153   29.69000    13.34000  
2005  154   31.33000    17.01000  
2005  155   32.58000    18.08000  
2005  156   23.53000    12.16000  
2005  157   26.00000    15.25000  
2005  158   28.84000    15.36000  
2005  159   28.08000    13.91000  
2005  160   31.46000    18.02000  
2005  161   32.20000    17.93000  
2005  162   32.79000    15.71000  
2005  163   25.09000    13.50000  
2005  164   28.31000    13.42000  
2005  165   23.36000    14.90000  
2005  166   26.88000    12.59000  
2005  167   29.91000    14.18000  
2005  168   29.77000    16.57000  
2005  169   30.06000    15.24000  
2005  170   20.95000    11.82000  
2005  171   26.73000    14.39000  
2005  172   21.62000    11.52000  
2005  173   24.16000    11.85000  
2005  174   27.00000    15.86000  
2005  175   30.29000    15.86000  
2005  176   30.75000    17.48000  
2005  177   30.20000    17.38000  
2005  178   31.13000    15.14000  
2005  179   20.60000    13.38000  
2005  180   30.18000    15.19000  
2005  181   31.89000    17.07000  
2005  182   33.86000    19.34000  
2005  183   32.42000    21.03000  
2005  184   22.87000    15.04000  
2005  185   29.26000    14.19000  
2005  186   32.75000    16.91000  
2005  187   34.53000    17.14000  
2005  188   34.36000    17.93000  
2005  189   32.52000    20.17000  
2005  190   28.87000    14.68000  
2005  191   23.83000    15.70000  
2005  192   27.60000    16.80000  
2005  193   29.58000    12.77000  
2005  194   25.43000    14.52000  
2005  195   28.99000    15.35000  
2005  196   32.59000    19.14000  
2005  197   25.00000    13.40000  
2005  198   30.09000    16.11000  
2005  199   29.75000    15.70000  
2005  200   32.01000    18.88000  
2005  201   31.19000    19.36000  
2005  202   29.83000    15.86000  
2005  203   33.15000    19.40000  
2005  204   34.60000    21.25000  
2005  205   31.67000    19.02000  
2005  206   32.19000    18.29000  
2005  207   30.90000    20.42000  
2005  208   27.05000    18.03000  
2005  209   20.66000    17.93000  
2005  210   23.71000    14.12000  
2005  211   15.46000    14.27000  
2005  212   21.93000    15.93000  
2005  213   27.03000    15.28000  
2005  214   29.86000    16.75000  
2005  215   31.58000    15.94000  
2005  216   33.21000    17.13000  
2005  217   34.24000    17.56000  
2005  218   27.00000    17.40000  
2005  219   19.98000    11.76000  
2005  220   23.11000    11.18000  
2005  221   25.10000    12.87000  
2005  222   26.73000    14.54000  
2005  223   22.96000    14.90000  
2005  224   26.54000    13.30000  
2005  225   27.99000    14.68000  
2005  226   28.07000    16.77000  
2005  227   24.16000    12.65000  
2005  228   28.29000    14.96000  
2005  229   30.77000    15.97000  
2005  230   33.17000    18.20000  
2005  231   27.21000    14.00000  
2005  232   22.38000    11.41000  
2005  233   24.96000     9.36000  
2005  234   26.98000    10.07000  
2005  235   27.98000    12.85000  
2005  236   29.55000    16.59000  
2005  237   28.27000    14.59000  
2005  238   27.09000    13.93000  
2005  239   28.43000    15.83000  
2005  240   22.44000    10.04000  
2005  241   19.00000     8.31000  
2005  242   24.14000    10.33000  
2005  243   27.61000    11.82000  
2005  244   23.67000    12.73000  
2005  245   25.28000    10.42000  
2005  246   25.70000    10.37000  
2005  247   25.49000    11.88000  
2005  248   27.20000    13.55000  
2005  249   23.21000    14.63000  
2005  250   25.06000    11.65000  
2005  251   20.63000    11.43000  
2005  252   19.30000     8.81000  
2005  253   25.07000    10.26000  
2005  254   27.23000    11.37000  
2005  255   28.54000    12.25000  
2005  256   27.45000    11.45000  
2005  257   26.84000    11.55000  
2005  258   25.91000    11.09000  
2005  259   26.90000    11.53000  
2005  260   26.07000    10.39000  
2005  261   28.65000    11.87000  
2005  262   28.66000    13.56000  
2005  263   25.33000    12.46000  
2005  264   14.39000    10.26000  
2005  265   16.35000    10.13000  
2005  266   18.64000    12.39000  
2005  267   14.12000     8.58000  
2005  268   13.38000    10.45000  
2005  269   11.21000     9.62000  
2005  270   16.72000     7.48000  
2005  271   22.74000     8.36000  
2005  272   24.20000     9.47000  
2005  273   26.77000     9.67000  
2005  274   28.92000    10.80000  
2005  275   24.40000    10.99000  
2005  276   16.03000     8.40000  
2005  277   16.39000     7.12000  
2005  278   20.31000     7.07000  
2005  279   18.02000     6.82000  
2005  280   16.31000     7.55000  
2005  281   18.24000     5.76000  
2005  282   17.13000     5.46000  
2005  283   13.88000     4.22000  
2005  284   19.81000     4.52000  
2005  285   19.63000     6.66000  
2005  286   17.84000     6.25000  
2005  287   21.11000     7.99000  
2005  288   21.04000     5.39000  
2005  289   18.55000     5.74000  
2005  290   14.43000     4.57000  
2005  291   19.71000     3.78000  
2005  292   20.01000     4.44000  
2005  293   22.98000     4.84000  
2005  294    9.66000     0.14000  
2005  295    7.75000    -2.29000  
2005  296    9.88000    -2.22000  
2005  297   14.08000    -1.40000  
2005  298   13.40000    -0.91000  
2005  299   16.72000     0.15000  
2005  300   11.56000     0.56000  
2005  301   12.94000    -0.94000  
2005  302   14.53000    -1.07000  
2005  303   13.48000    -1.64000  
2005  304   13.08000    -1.77000  
2005  305   14.37000    -1.36000  
2005  306   14.37000    -0.80000  
2005  307   14.16000    -1.65000  
2005  308   10.85000    -1.78000  
2005  309    9.31000    -0.98000  
2005  310   15.04000     0.24000  
2005  311   12.29000    -0.31000  
2005  312   11.59000     0.80000  
2005  313   18.93000     1.21000  
2005  314    7.85000     0.90000  
2005  315   14.04000     0.78000  
2005  316    3.65000    -4.57000  
2005  317    5.92000    -4.67000  
2005  318    4.25000    -4.70000  
2005  319    6.61000    -4.89000  
2005  320    2.67000    -4.51000  
2005  321    0.64000    -7.66000  
2005  322    4.21000    -8.06000  
2005  323   10.14000    -6.63000  
2005  324    5.98000    -7.13000  
2005  325    4.31000    -7.60000  
2005  326    3.15000    -5.89000  
2005  327    4.52000    -7.28000  
2005  328    5.66000    -7.03000  
2005  329    3.65000    -6.63000  
2005  330    0.99000    -8.64000  
2005  331    2.17000    -7.67000  
2005  332    5.98000    -5.58000  
2005  333    8.66000    -5.77000  
2005  334    6.45000    -5.02000  
2005  335    8.61000    -4.68000  
2005  336    8.30000    -8.90000  
2005  337   -8.37000   -20.03000  
2005  338   -4.57000   -17.92000  
2005  339    1.09000   -12.73000  
2005  340   -1.64000    -8.68000  
2005  341    0.37000    -4.81000  
2005  342    7.81000    -6.24000  
2005  343    8.36000    -7.41000  
2005  344    6.39000    -7.47000  
2005  345    7.75000    -6.67000  
2005  346    0.93000    -9.14000  
2005  347    2.62000    -9.37000  
2005  348    5.84000    -7.43000  
2005  349    6.02000    -7.95000  
2005  350    5.03000    -7.80000  
2005  351   10.85000    -6.49000  
2005  352    4.86000    -7.27000  
2005  353    2.27000    -7.75000  
2005  354   -0.11000   -14.33000  
2005  355   -3.54000   -15.10000  
2005  356   -2.01000   -13.54000  
2005  357    4.08000    -9.83000  
2005  358    3.19000    -8.55000  
2005  359    4.48000   -10.42000  
2005  360    6.59000   -10.64000  
2005  361   -4.73000   -17.02000  
2005  362   -4.04000   -18.03000  
2005  363   -4.18000   -18.34000  
2005  364   -0.97000   -15.81000  
2005  365   -6.83000   -15.22000  
2006    1   -3.90000   -17.25000  
2006    2   -4.92000   -16.30000  
2006    3   -3.84000   -15.84000  
2006    4   11.06000   -10.71000  
2006    5    3.48000   -14.31000  
2006    6   -0.70000   -15.09000  
2006    7    3.39000   -11.89000  
2006    8    7.22000   -10.20000  
2006    9    0.65000   -11.89000  
2006   10   -2.47000   -11.68000  
2006   11   -4.57000   -10.37000  
2006   12   -6.72000   -14.94000  
2006   13   -3.59000   -16.42000  
2006   14   -4.71000   -15.86000  
2006   15   -4.55000   -14.63000  
2006   16   -4.50000   -16.35000  
2006   17   -3.98000   -15.92000  
2006   18   -8.43000   -15.33000  
2006   19   -9.64000   -16.03000  
2006   20   -8.73000   -17.03000  
2006   21  -10.59000   -21.09000  
2006   22   -8.54000   -21.61000  
2006   23  -13.85000   -21.58000  
2006   24  -17.34000   -21.78000  
2006   25  -16.34000   -22.21000  
2006   26  -14.07000   -22.54000  
2006   27  -12.88000   -22.85000  
2006   28  -10.95000   -22.37000  
2006   29  -11.36000   -22.46000  
2006   30  -10.03000   -24.90000  
2006   31   -8.61000   -22.78000  
2006   32   -5.42000   -23.07000  
2006   33   -5.26000   -14.91000  
2006   34   -6.19000   -23.41000  
2006   35   -5.69000   -22.47000  
2006   36   -6.44000   -19.76000  
2006   37   -6.23000   -22.31000  
2006   38   -9.14000   -22.76000  
2006   39   -9.14000   -21.66000  
2006   40   -2.14000   -17.58000  
2006   41   -7.35000   -17.97000  
2006   42   -5.06000   -18.03000  
2006   43   -9.65000   -18.62000  
2006   44   -4.03000   -19.28000  
2006   45    1.29000   -19.53000  
2006   46    1.72000   -15.19000  
2006   47   -4.38000   -14.83000  
2006   48   -0.85000   -12.15000  
2006   49    2.58000   -10.69000  
2006   50    7.33000    -8.88000  
2006   51    7.10000    -8.71000  
2006   52    9.21000    -3.25000  
2006   53   19.91000    -2.16000  
2006   54    2.57000    -3.25000  
2006   55   -0.34000    -7.17000  
2006   56    1.17000    -8.57000  
2006   57    3.11000    -8.67000  
2006   58    4.62000    -7.99000  
2006   59    9.08000    -4.81000  
2006   60    7.98000    -5.29000  
2006   61   13.38000    -4.00000  
2006   62   13.23000    -2.72000  
2006   63   14.53000    -0.22000  
2006   64    9.76000    -1.04000  
2006   65    9.98000    -1.65000  
2006   66   11.25000    -1.06000  
2006   67   12.95000    -1.61000  
2006   68   14.65000    -0.03000  
2006   69   14.31000    -0.32000  
2006   70   13.65000     0.58000  
2006   71   12.53000    -0.02000  
2006   72   20.27000     0.58000  
2006   73   11.57000    -0.18000  
2006   74   17.08000     0.03000  
2006   75   20.48000     2.92000  
2006   76   18.60000     2.37000  
2006   77   20.52000     2.82000  
2006   78   12.03000     2.19000  
2006   79    8.78000    -2.45000  
2006   80   12.03000    -3.40000  
2006   81   12.89000    -3.03000  
2006   82   15.04000    -1.05000  
2006   83   16.07000    -0.00000  
2006   84   17.51000     1.89000  
2006   85   16.44000     1.14000  
2006   86   12.19000    -0.95000  
2006   87    5.44000    -2.63000  
2006   88   11.67000    -1.72000  
2006   89   14.92000    -2.44000  
2006   90    3.29000    -5.38000  
2006   91    9.36000    -2.98000  
2006   92   14.14000    -0.70000  
2006   93   14.51000     0.74000  
2006   94   17.08000     1.96000  
2006   95   18.86000     4.27000  
2006   96   25.30000     4.45000  
2006   97   17.85000     5.43000  
2006   98   21.51000     6.20000  
2006   99   17.92000     6.20000  
2006  100   18.03000     3.19000  
2006  101   10.48000     1.95000  
2006  102   14.27000     2.85000  
2006  103   17.45000     5.29000  
2006  104   18.19000     7.01000  
2006  105   21.22000     8.33000  
2006  106   27.25000    10.64000  
2006  107   26.23000    12.54000  
2006  108   17.45000     7.49000  
2006  109   22.36000    -0.08000  
2006  110    5.04000    -1.09000  
2006  111    5.40000    -0.25000  
2006  112   10.04000     0.07000  
2006  113   17.19000     1.64000  
2006  114   20.51000     5.48000  
2006  115   23.86000     7.60000  
2006  116   20.86000     7.85000  
2006  117   23.33000     9.05000  
2006  118   24.59000    11.02000  
2006  119   22.08000    10.78000  
2006  120   28.46000    12.90000  
2006  121   23.53000    10.41000  
2006  122   22.00000     6.47000  
2006  123   19.99000     7.22000  
2006  124   24.78000     9.41000  
2006  125   29.89000    13.76000  
2006  126   20.48000    11.06000  
2006  127   21.44000    12.29000  
2006  128   17.12000     5.08000  
2006  129   19.77000     6.24000  
2006  130   23.83000     8.18000  
2006  131   24.03000     8.52000  
2006  132   25.08000     9.67000  
2006  133   26.67000    13.28000  
2006  134   27.52000    12.73000  
2006  135   29.79000    14.51000  
2006  136   29.59000    14.01000  
2006  137   22.95000    11.23000  
2006  138   23.55000     8.18000  
2006  139   26.15000    10.10000  
2006  140   25.96000    14.45000  
2006  141   20.44000     9.61000  
2006  142   25.47000    11.20000  
2006  143   28.20000    14.29000  
2006  144   29.92000    15.99000  
2006  145   30.94000    15.95000  
2006  146   19.25000    11.45000  
2006  147   27.08000    11.82000  
2006  148   25.82000    11.88000  
2006  149   25.80000     9.66000  
2006  150   27.89000    12.44000  
2006  151   28.48000    15.26000  
2006  152   28.66000    11.92000  
2006  153   29.69000    13.34000  
2006  154   31.33000    17.01000  
2006  155   32.58000    18.08000  
2006  156   23.53000    12.16000  
2006  157   26.00000    15.25000  
2006  158   28.84000    15.36000  
2006  159   28.08000    13.91000  
2006  160   31.46000    18.02000  
2006  161   32.20000    17.93000  
2006  162   32.79000    15.71000  
2006  163   25.09000    13.50000  
2006  164   28.31000    13.42000  
2006  165   23.36000    14.90000  
2006  166   26.88000    12.59000  
2006  167   29.91000    14.18000  
2006  168   29.77000    16.57000  
2006  169   30.06000    15.24000  
2006  170   20.95000    11.82000  
2006  171   26.73000    14.39000  
2006  172   21.62000    11.52000  
2006  173   24.16000    11.85000  
2006  174   27.00000    15.86000  
2006  175   30.29000    15.86000  
2006  176   30.75000    17.48000  
2006  177   30.20000    17.38000  
2006  178   31.13000    15.14000  
2006  179   20.60000    13.38000  
2006  180   30.18000    15.19000  
2006  181   31.89000    17.07000  
2006  182   33.86000    19.34000  
2006  183   32.42000    21.03000  
2006  184   22.87000    15.04000  
2006  185   29.26000    14.19000  
2006  186   32.75000    16.91000  
2006  187   34.53000    17.14000  
2006  188   34.36000    17.93000  
2006  189   32.52000    20.17000  
2006  190   28.87000    14.68000  
2006  191   23.83000    15.70000  
2006  192   27.60000    16.80000  
2006  193   29.58000    12.77000  
2006  194   25.43000    14.52000  
2006  195   28.99000    15.35000  
2006  196   32.59000    19.14000  
2006  197   25.00000    13.40000  
2006  198   30.09000    16.11000  
2006  199   29.75000    15.70000  
2006  200   32.01000    18.88000  
2006  201   31.19000    19.36000  
2006  202   29.83000    15.86000  
2006  203   33.15000    19.40000  
2006  204   34.60000    21.25000  
2006  205   31.67000    19.02000  
2006  206   32.19000    18.29000  
2006  207   30.90000    20.42000  
2006  208   27.05000    18.03000  
2006  209   20.66000    17.93000  
2006  210   23.71000    14.12000  
2006  211   15.46000    14.27000  
2006  212   21.93000    15.93000  
2006  213   27.03000    15.28000  
2006  214   29.86000    16.75000  
2006  215   31.58000    15.94000  
2006  216   33.21000    17.13000  
2006  217   34.24000    17.56000  
2006  218   27.00000    17.40000  
2006  219   19.98000    11.76000  
2006  220   23.11000    11.18000  
2006  221   25.10000    12.87000  
2006  222   26.73000    14.54000  
2006  223   22.96000    14.90000  
2006  224   26.54000    13.30000  
2006  225   27.99000    14.68000  
2006  226   28.07000    16.77000  
2006  227   24.16000    12.65000  
2006  228   28.29000    14.96000  
2006  229   30.77000    15.97000  
2006  230   33.17000    18.20000  
2006  231   27.21000    14.00000  
2006  232   22.38000    11.41000  
2006  233   24.96000     9.36000  
2006  234   26.98000    10.07000  
2006  235   27.98000    12.85000  
2006  236   29.55000    16.59000  
2006  237   28.27000    14.59000  
2006  238   27.09000    13.93000  
2006  239   28.43000    15.83000  
2006  240   22.44000    10.04000  
2006  241   19.00000     8.31000  
2006  242   24.14000    10.33000  
2006  243   27.61000    11.82000  
2006  244   23.67000    12.73000  
2006  245   25.28000    10.42000  
2006  246   25.70000    10.37000  
2006  247   25.49000    11.88000  
2006  248   27.20000    13.55000  
2006  249   23.21000    14.63000  
2006  250   25.06000    11.65000  
2006  251   20.63000    11.43000  
2006  252   19.30000     8.81000  
2006  253   25.07000    10.26000  
2006  254   27.23000    11.37000  
2006  255   28.54000    12.25000  
2006  256   27.45000    11.45000  
2006  257   26.84000    11.55000  
2006  258   25.91000    11.09000  
2006  259   26.90000    11.53000  
2006  260   26.07000    10.39000  
2006  261   28.65000    11.87000  
2006  262   28.66000    13.56000  
2006  263   25.33000    12.46000  
2006  264   14.39000    10.26000  
2006  265   16.35000    10.13000  
2006  266   18.64000    12.39000  
2006  267   14.12000     8.58000  
2006  268   13.38000    10.45000  
2006  269   11.21000     9.62000  
2006  270   16.72000     7.48000  
2006  271   22.74000     8.36000  
2006  272   24.20000     9.47000  
2006  273   26.77000     9.67000  
2006  274   28.92000    10.80000  
2006  275   24.40000    10.99000  
2006  276   16.03000     8.40000  
2006  277   16.39000     7.12000  
2006  278   20.31000     7.07000  
2006  279   18.02000     6.82000  
2006  280   16.31000     7.55000  
2006  281   18.24000     5.76000  
2006  282   17.13000     5.46000  
2006  283   13.88000     4.22000  
2006  284   19.81000     4.52000  
2006  285   19.63000     6.66000  
2006  286   17.84000     6.25000  
2006  287   21.11000     7.99000  
2006  288   21.04000     5.39000  
2006  289   18.55000     5.74000  
2006  290   14.43000     4.57000  
2006  291   19.71000     3.78000  
2006  292   20.01000     4.44000  
2006  293   22.98000     4.84000  
2006  294    9.66000     0.14000  
2006  295    7.75000    -2.29000  
2006  296    9.88000    -2.22000  
2006  297   14.08000    -1.40000  
2006  298   13.40000    -0.91000  
2006  299   16.72000     0.15000  
2006  300   11.56000     0.56000  
2006  301   12.94000    -0.94000  
2006  302   14.53000    -1.07000  
2006  303   13.48000    -1.64000  
2006  304   13.08000    -1.77000  
2006  305   14.37000    -1.36000  
2006  306   14.37000    -0.80000  
2006  307   14.16000    -1.65000  
2006  308   10.85000    -1.78000  
2006  309    9.31000    -0.98000  
2006  310   15.04000     0.24000  
2006  311   12.29000    -0.31000  
2006  312   11.59000     0.80000  
2006  313   18.93000     1.21000  
2006  314    7.85000     0.90000  
2006  315   14.04000     0.78000  
2006  316    3.65000    -4.57000  
2006  317    5.92000    -4.67000  
2006  318    4.25000    -4.70000  
2006  319    6.61000    -4.89000  
2006  320    2.67000    -4.51000  
2006  321    0.64000    -7.66000  
2006  322    4.21000    -8.06000  
2006  323   10.14000    -6.63000  
2006  324    5.98000    -7.13000  
2006  325    4.31000    -7.60000  
2006  326    3.15000    -5.89000  
2006  327    4.52000    -7.28000  
2006  328    5.66000    -7.03000  
2006  329    3.65000    -6.63000  
2006  330    0.99000    -8.64000  
2006  331    2.17000    -7.67000  
2006  332    5.98000    -5.58000  
2006  333    8.66000    -5.77000  
2006  334    6.45000    -5.02000  
2006  335    8.61000    -4.68000  
2006  336    8.30000    -8.90000  
2006  337   -8.37000   -20.03000  
2006  338   -4.57000   -17.92000  
2006  339    1.09000   -12.73000  
2006  340   -1.64000    -8.68000  
2006  341    0.37000    -4.81000  
2006  342    7.81000    -6.24000  
2006  343    8.36000    -7.41000  
2006  344    6.39000    -7.47000  
2006  345    7.75000    -6.67000  
2006  346    0.93000    -9.14000  
2006  347    2.62000    -9.37000  
2006  348    5.84000    -7.43000  
2006  349    6.02000    -7.95000  
2006  350    5.03000    -7.80000  
2006  351   10.85000    -6.49000  
2006  352    4.86000    -7.27000  
2006  353    2.27000    -7.75000  
2006  354   -0.11000   -14.33000  
2006  355   -3.54000   -15.10000  
2006  356   -2.01000   -13.54000  
2006  357    4.08000    -9.83000  
2006  358    3.19000    -8.55000  
2006  359    4.48000   -10.42000  
2006  360    6.59000   -10.64000  
2006  361   -4.73000   -17.02000  
2006  362   -4.04000   -18.03000  
2006  363   -4.18000   -18.34000  
2006  364   -0.97000   -15.81000  
2006  365   -6.83000   -15.22000  
2007    1   -3.90000   -17.25000  
2007    2   -4.92000   -16.30000  
2007    3   -3.84000   -15.84000  
2007    4   11.06000   -10.71000  
2007    5    3.48000   -14.31000  
2007    6   -0.70000   -15.09000  
2007    7    3.39000   -11.89000  
2007    8    7.22000   -10.20000  
2007    9    0.65000   -11.89000  
2007   10   -2.47000   -11.68000  
2007   11   -4.57000   -10.37000  
2007   12   -6.72000   -14.94000  
2007   13   -3.59000   -16.42000  
2007   14   -4.71000   -15.86000  
2007   15   -4.55000   -14.63000  
2007   16   -4.50000   -16.35000  
2007   17   -3.98000   -15.92000  
2007   18   -8.43000   -15.33000  
2007   19   -9.64000   -16.03000  
2007   20   -8.73000   -17.03000  
2007   21  -10.59000   -21.09000  
2007   22   -8.54000   -21.61000  
2007   23  -13.85000   -21.58000  
2007   24  -17.34000   -21.78000  
2007   25  -16.34000   -22.21000  
2007   26  -14.07000   -22.54000  
2007   27  -12.88000   -22.85000  
2007   28  -10.95000   -22.37000  
2007   29  -11.36000   -22.46000  
2007   30  -10.03000   -24.90000  
2007   31   -8.61000   -22.78000  
2007   32   -5.42000   -23.07000  
2007   33   -5.26000   -14.91000  
2007   34   -6.19000   -23.41000  
2007   35   -5.69000   -22.47000  
2007   36   -6.44000   -19.76000  
2007   37   -6.23000   -22.31000  
2007   38   -9.14000   -22.76000  
2007   39   -9.14000   -21.66000  
2007   40   -2.14000   -17.58000  
2007   41   -7.35000   -17.97000  
2007   42   -5.06000   -18.03000  
2007   43   -9.65000   -18.62000  
2007   44   -4.03000   -19.28000  
2007   45    1.29000   -19.53000  
2007   46    1.72000   -15.19000  
2007   47   -4.38000   -14.83000  
2007   48   -0.85000   -12.15000  
2007   49    2.58000   -10.69000  
2007   50    7.33000    -8.88000  
2007   51    7.10000    -8.71000  
2007   52    9.21000    -3.25000  
2007   53   19.91000    -2.16000  
2007   54    2.57000    -3.25000  
2007   55   -0.34000    -7.17000  
2007   56    1.17000    -8.57000  
2007   57    3.11000    -8.67000  
2007   58    4.62000    -7.99000  
2007   59    9.08000    -4.81000  
2007   60    7.98000    -5.29000  
2007   61   13.38000    -4.00000  
2007   62   13.23000    -2.72000  
2007   63   14.53000    -0.22000  
2007   64    9.76000    -1.04000  
2007   65    9.98000    -1.65000  
2007   66   11.25000    -1.06000  
2007   67   12.95000    -1.61000  
2007   68   14.65000    -0.03000  
2007   69   14.31000    -0.32000  
2007   70   13.65000     0.58000  
2007   71   12.53000    -0.02000  
2007   72   20.27000     0.58000  
2007   73   11.57000    -0.18000  
2007   74   17.08000     0.03000  
2007   75   20.48000     2.92000  
2007   76   18.60000     2.37000  
2007   77   20.52000     2.82000  
2007   78   12.03000     2.19000  
2007   79    8.78000    -2.45000  
2007   80   12.03000    -3.40000  
2007   81   12.89000    -3.03000  
2007   82   15.04000    -1.05000  
2007   83   16.07000    -0.00000  
2007   84   17.51000     1.89000  
2007   85   16.44000     1.14000  
2007   86   12.19000    -0.95000  
2007   87    5.44000    -2.63000  
2007   88   11.67000    -1.72000  
2007   89   14.92000    -2.44000  
2007   90    3.29000    -5.38000  
2007   91    9.36000    -2.98000  
2007   92   14.14000    -0.70000  
2007   93   14.51000     0.74000  
2007   94   17.08000     1.96000  
2007   95   18.86000     4.27000  
2007   96   25.30000     4.45000  
2007   97   17.85000     5.43000  
2007   98   21.51000     6.20000  