158152tmp.tem: Temperature data - file written by SWAT+ editor 2025-11-04 13:23:50.353192
nbyr     tstep       lat       lon      elev
  14         0    39.281    97.781  4250.000
2005    1  -14.87000   -26.89000  
2005    2  -13.97000   -27.66000  
2005    3  -11.59000   -27.61000  
2005    4   -9.37000   -24.84000  
2005    5  -10.62000   -25.95000  
2005    6  -11.28000   -23.86000  
2005    7  -12.66000   -24.58000  
2005    8   -8.19000   -22.28000  
2005    9   -9.95000   -22.32000  
2005   10  -12.45000   -19.08000  
2005   11  -15.44000   -20.31000  
2005   12  -16.63000   -28.45000  
2005   13  -16.07000   -28.52000  
2005   14  -15.88000   -28.82000  
2005   15  -15.80000   -29.83000  
2005   16  -14.83000   -27.48000  
2005   17  -15.64000   -27.40000  
2005   18  -18.57000   -24.90000  
2005   19  -18.76000   -25.44000  
2005   20  -19.90000   -28.21000  
2005   21  -20.52000   -34.43000  
2005   22  -21.11000   -31.12000  
2005   23  -21.94000   -34.25000  
2005   24  -22.46000   -30.91000  
2005   25  -23.09000   -32.69000  
2005   26  -22.52000   -33.24000  
2005   27  -22.62000   -31.71000  
2005   28  -22.30000   -30.40000  
2005   29  -22.61000   -36.02000  
2005   30  -21.32000   -38.52000  
2005   31  -21.36000   -39.10000  
2005   32  -19.67000   -38.05000  
2005   33  -18.07000   -34.24000  
2005   34  -19.38000   -34.41000  
2005   35  -17.91000   -34.91000  
2005   36  -17.50000   -35.39000  
2005   37  -18.23000   -30.81000  
2005   38  -18.06000   -30.30000  
2005   39  -17.82000   -31.27000  
2005   40  -16.27000   -32.34000  
2005   41  -18.45000   -29.99000  
2005   42  -18.99000   -29.20000  
2005   43  -19.70000   -31.18000  
2005   44  -16.03000   -31.26000  
2005   45  -13.32000   -30.89000  
2005   46  -11.75000   -30.26000  
2005   47  -12.99000   -28.99000  
2005   48  -14.43000   -29.86000  
2005   49  -10.82000   -22.94000  
2005   50   -8.47000   -24.88000  
2005   51   -8.62000   -26.54000  
2005   52   -5.26000   -22.67000  
2005   53   -3.41000   -23.76000  
2005   54   -8.74000   -17.45000  
2005   55  -12.92000   -22.71000  
2005   56  -12.55000   -22.75000  
2005   57  -11.28000   -22.40000  
2005   58  -10.31000   -19.85000  
2005   59   -5.91000   -17.50000  
2005   60   -6.34000   -20.89000  
2005   61   -2.96000   -20.93000  
2005   62   -4.06000   -18.90000  
2005   63   -2.21000   -15.80000  
2005   64   -2.25000   -13.84000  
2005   65   -4.48000   -13.96000  
2005   66   -4.88000   -14.51000  
2005   67   -2.41000   -14.15000  
2005   68   -1.09000   -12.26000  
2005   69   -1.48000   -12.71000  
2005   70   -2.92000   -17.43000  
2005   71   -3.52000   -18.72000  
2005   72    1.61000   -15.75000  
2005   73   -3.73000   -13.61000  
2005   74    0.19000   -15.02000  
2005   75    3.08000   -13.52000  
2005   76    1.78000   -10.57000  
2005   77   -0.19000   -12.46000  
2005   78   -2.49000   -11.90000  
2005   79   -6.79000   -14.46000  
2005   80   -3.74000   -15.50000  
2005   81   -2.03000   -15.04000  
2005   82   -0.82000   -11.79000  
2005   83   -0.51000   -10.22000  
2005   84    2.29000   -11.03000  
2005   85   -1.31000   -12.10000  
2005   86   -3.83000   -14.13000  
2005   87   -8.26000   -14.86000  
2005   88   -4.59000   -14.89000  
2005   89   -5.48000   -15.59000  
2005   90   -9.85000   -18.00000  
2005   91   -4.29000   -16.90000  
2005   92   -1.87000   -18.15000  
2005   93   -2.31000   -12.25000  
2005   94   -1.79000   -10.95000  
2005   95    5.30000   -12.84000  
2005   96   10.01000   -13.19000  
2005   97    1.17000    -7.75000  
2005   98    4.46000    -6.92000  
2005   99    1.63000   -10.27000  
2005  100   -1.54000   -10.15000  
2005  101   -2.77000   -13.72000  
2005  102    0.80000   -13.17000  
2005  103    1.44000    -9.80000  
2005  104    2.23000    -7.14000  
2005  105    4.87000    -6.29000  
2005  106    7.06000    -5.55000  
2005  107    7.84000    -2.19000  
2005  108    5.08000    -6.01000  
2005  109   -0.02000   -12.46000  
2005  110   -8.24000   -12.55000  
2005  111   -7.44000   -15.39000  
2005  112   -4.08000   -13.91000  
2005  113    3.60000   -10.06000  
2005  114    5.43000    -7.57000  
2005  115    5.94000    -5.00000  
2005  116    2.46000    -4.70000  
2005  117    7.45000    -3.98000  
2005  118    6.28000    -3.57000  
2005  119    3.29000    -4.47000  
2005  120    9.33000    -3.63000  
2005  121    3.00000    -6.52000  
2005  122    1.22000    -9.33000  
2005  123    4.45000    -6.93000  
2005  124    8.97000    -3.39000  
2005  125   11.49000    -2.55000  
2005  126    1.16000    -6.04000  
2005  127    3.56000    -5.54000  
2005  128    0.19000    -6.93000  
2005  129    4.45000    -6.02000  
2005  130    7.95000    -7.04000  
2005  131    8.11000    -3.70000  
2005  132    8.24000    -1.77000  
2005  133    6.44000     0.11000  
2005  134    9.30000     1.42000  
2005  135   10.93000     0.55000  
2005  136   10.87000    -0.32000  
2005  137    8.65000    -3.03000  
2005  138    8.83000    -3.08000  
2005  139   10.13000    -1.76000  
2005  140    9.79000    -0.71000  
2005  141    4.07000    -2.03000  
2005  142    4.39000    -2.10000  
2005  143   10.67000     0.55000  
2005  144    9.97000     1.26000  
2005  145   12.30000    -0.48000  
2005  146    4.39000    -1.48000  
2005  147    9.64000    -1.23000  
2005  148    8.71000    -0.65000  
2005  149    7.94000    -3.27000  
2005  150   10.26000     0.93000  
2005  151   10.85000     1.80000  
2005  152   12.77000     2.36000  
2005  153   13.89000     1.89000  
2005  154   14.78000     1.09000  
2005  155   12.65000     1.29000  
2005  156    5.41000    -1.36000  
2005  157    7.40000     1.60000  
2005  158   10.12000     2.15000  
2005  159   12.50000     3.27000  
2005  160   13.95000     5.11000  
2005  161   11.30000     4.89000  
2005  162   14.74000     0.69000  
2005  163    8.17000    -0.69000  
2005  164    9.09000    -0.43000  
2005  165    8.45000     0.27000  
2005  166   10.89000    -0.05000  
2005  167   12.10000     1.63000  
2005  168   12.31000     2.55000  
2005  169    9.61000    -1.11000  
2005  170    5.03000    -1.69000  
2005  171   10.54000     1.76000  
2005  172    3.44000    -1.90000  
2005  173   10.02000    -0.13000  
2005  174   10.99000     0.14000  
2005  175   13.02000     4.21000  
2005  176   12.25000     3.99000  
2005  177   12.73000     2.05000  
2005  178   13.15000     1.28000  
2005  179    8.89000     0.43000  
2005  180   12.39000     2.69000  
2005  181   13.41000     2.29000  
2005  182   15.24000     5.46000  
2005  183   12.89000     2.34000  
2005  184    4.77000     1.22000  
2005  185   12.57000    -0.18000  
2005  186   14.53000     3.17000  
2005  187   15.87000     2.75000  
2005  188   15.28000     4.13000  
2005  189   12.35000     2.12000  
2005  190    7.11000     0.08000  
2005  191    8.98000    -0.26000  
2005  192   11.60000     1.64000  
2005  193    8.04000    -2.77000  
2005  194   10.68000     0.14000  
2005  195   10.57000     1.80000  
2005  196   13.56000     4.02000  
2005  197    7.38000     0.27000  
2005  198   11.01000     2.75000  
2005  199   12.89000     0.85000  
2005  200   14.76000     1.35000  
2005  201   11.86000     5.17000  
2005  202   11.97000     2.09000  
2005  203   15.04000     5.00000  
2005  204   13.20000     2.90000  
2005  205   13.93000     5.01000  
2005  206   11.56000     3.28000  
2005  207   12.64000     4.74000  
2005  208   12.69000     4.83000  
2005  209   11.38000     4.10000  
2005  210    8.09000     2.55000  
2005  211    6.85000     1.03000  
2005  212    8.60000     1.09000  
2005  213   10.92000     3.14000  
2005  214   13.95000     4.88000  
2005  215   15.09000     6.27000  
2005  216   16.22000     4.83000  
2005  217   16.48000     5.44000  
2005  218   11.85000     1.24000  
2005  219    3.46000     0.23000  
2005  220   11.12000    -0.38000  
2005  221   11.84000    -0.52000  
2005  222   10.33000     1.32000  
2005  223    8.05000    -1.75000  
2005  224    9.43000    -1.75000  
2005  225   11.86000     0.05000  
2005  226   10.28000     1.18000  
2005  227    8.37000     0.37000  
2005  228   12.06000     0.70000  
2005  229   13.50000    -1.33000  
2005  230   13.61000     0.62000  
2005  231    6.65000    -0.03000  
2005  232    5.99000    -3.21000  
2005  233    9.69000    -0.90000  
2005  234   11.45000     0.19000  
2005  235    8.67000     0.58000  
2005  236   11.22000    -0.09000  
2005  237   10.00000    -0.15000  
2005  238   10.12000    -0.76000  
2005  239   11.25000    -0.10000  
2005  240    1.89000    -5.46000  
2005  241    5.12000    -4.59000  
2005  242    8.85000    -6.80000  
2005  243   10.48000    -5.47000  
2005  244    7.35000    -0.49000  
2005  245    6.34000    -1.02000  
2005  246    7.31000    -0.24000  
2005  247    9.02000    -5.81000  
2005  248    8.34000    -4.13000  
2005  249    8.49000    -1.12000  
2005  250    5.30000    -2.94000  
2005  251    7.19000    -3.36000  
2005  252    6.25000    -4.42000  
2005  253    8.67000    -4.03000  
2005  254   10.20000    -3.15000  
2005  255    9.43000    -1.77000  
2005  256    9.57000    -3.63000  
2005  257    9.78000    -3.04000  
2005  258    9.16000    -1.69000  
2005  259    9.92000    -2.41000  
2005  260    6.85000    -7.07000  
2005  261   11.91000    -6.43000  
2005  262   11.75000    -0.17000  
2005  263    7.97000    -0.77000  
2005  264    2.99000    -1.97000  
2005  265    3.49000    -1.83000  
2005  266    2.85000    -1.04000  
2005  267    0.99000    -2.41000  
2005  268    0.86000    -2.36000  
2005  269   -0.08000    -2.45000  
2005  270    4.36000    -3.71000  
2005  271    8.18000    -6.66000  
2005  272    8.69000    -6.14000  
2005  273    9.65000    -5.80000  
2005  274   10.47000    -6.36000  
2005  275    8.10000    -2.69000  
2005  276    2.56000    -4.42000  
2005  277    3.47000    -6.19000  
2005  278    4.57000    -7.20000  
2005  279    2.36000    -7.06000  
2005  280    1.65000    -6.02000  
2005  281    0.99000    -9.10000  
2005  282    1.58000    -8.90000  
2005  283    2.16000   -10.18000  
2005  284    3.61000    -8.12000  
2005  285    4.29000    -7.71000  
2005  286    2.69000    -7.38000  
2005  287    5.42000    -7.38000  
2005  288    5.58000   -10.02000  
2005  289    4.89000    -7.97000  
2005  290    0.78000    -8.76000  
2005  291    3.03000    -9.87000  
2005  292    4.01000   -11.33000  
2005  293    5.31000   -11.50000  
2005  294   -4.50000   -15.45000  
2005  295   -5.31000   -13.10000  
2005  296   -4.05000   -16.78000  
2005  297   -1.91000   -16.94000  
2005  298   -3.46000   -17.56000  
2005  299   -0.13000   -18.06000  
2005  300   -1.82000   -16.56000  
2005  301    0.03000   -10.93000  
2005  302   -0.53000   -11.09000  
2005  303   -1.14000   -11.03000  
2005  304   -0.26000   -15.54000  
2005  305   -0.85000   -16.63000  
2005  306   -1.21000   -14.02000  
2005  307   -1.33000   -14.50000  
2005  308   -2.85000   -12.16000  
2005  309   -4.18000   -14.35000  
2005  310   -1.87000   -15.22000  
2005  311   -2.99000   -10.30000  
2005  312   -2.85000   -12.34000  
2005  313    1.55000   -13.32000  
2005  314   -2.94000   -14.27000  
2005  315   -2.40000   -13.83000  
2005  316   -8.59000   -14.41000  
2005  317   -7.77000   -15.41000  
2005  318   -7.68000   -16.72000  
2005  319   -7.68000   -17.04000  
2005  320  -11.86000   -19.21000  
2005  321  -11.49000   -20.91000  
2005  322   -8.77000   -22.65000  
2005  323   -7.41000   -22.74000  
2005  324   -6.98000   -19.75000  
2005  325   -9.21000   -18.02000  
2005  326  -10.35000   -18.23000  
2005  327   -8.73000   -19.55000  
2005  328   -9.09000   -20.68000  
2005  329   -9.52000   -16.94000  
2005  330   -6.71000   -22.69000  
2005  331   -6.99000   -23.28000  
2005  332   -7.69000   -21.74000  
2005  333   -6.96000   -22.29000  
2005  334   -7.50000   -19.78000  
2005  335   -6.13000   -20.95000  
2005  336  -10.79000   -22.37000  
2005  337  -19.71000   -26.70000  
2005  338  -15.16000   -30.68000  
2005  339  -12.05000   -27.71000  
2005  340  -13.27000   -17.78000  
2005  341  -11.21000   -15.95000  
2005  342   -4.53000   -18.18000  
2005  343   -6.46000   -20.99000  
2005  344   -6.54000   -22.65000  
2005  345   -7.39000   -22.93000  
2005  346  -12.45000   -22.02000  
2005  347  -11.94000   -22.78000  
2005  348  -10.43000   -23.82000  
2005  349   -6.82000   -23.37000  
2005  350   -7.79000   -22.19000  
2005  351   -6.01000   -21.77000  
2005  352   -5.50000   -19.55000  
2005  353   -7.39000   -19.50000  
2005  354  -11.91000   -24.17000  
2005  355  -13.57000   -24.10000  
2005  356  -12.74000   -23.76000  
2005  357  -10.38000   -20.33000  
2005  358  -10.54000   -25.92000  
2005  359  -11.54000   -25.48000  
2005  360   -9.23000   -18.93000  
2005  361  -16.99000   -28.36000  
2005  362  -16.09000   -28.36000  
2005  363  -14.91000   -28.65000  
2005  364  -12.52000   -30.11000  
2005  365  -13.58000   -29.97000  
2006    1  -14.87000   -26.89000  
2006    2  -13.97000   -27.66000  
2006    3  -11.59000   -27.61000  
2006    4   -9.37000   -24.84000  
2006    5  -10.62000   -25.95000  
2006    6  -11.28000   -23.86000  
2006    7  -12.66000   -24.58000  
2006    8   -8.19000   -22.28000  
2006    9   -9.95000   -22.32000  
2006   10  -12.45000   -19.08000  
2006   11  -15.44000   -20.31000  
2006   12  -16.63000   -28.45000  
2006   13  -16.07000   -28.52000  
2006   14  -15.88000   -28.82000  
2006   15  -15.80000   -29.83000  
2006   16  -14.83000   -27.48000  
2006   17  -15.64000   -27.40000  
2006   18  -18.57000   -24.90000  
2006   19  -18.76000   -25.44000  
2006   20  -19.90000   -28.21000  
2006   21  -20.52000   -34.43000  
2006   22  -21.11000   -31.12000  
2006   23  -21.94000   -34.25000  
2006   24  -22.46000   -30.91000  
2006   25  -23.09000   -32.69000  
2006   26  -22.52000   -33.24000  
2006   27  -22.62000   -31.71000  
2006   28  -22.30000   -30.40000  
2006   29  -22.61000   -36.02000  
2006   30  -21.32000   -38.52000  
2006   31  -21.36000   -39.10000  
2006   32  -19.67000   -38.05000  
2006   33  -18.07000   -34.24000  
2006   34  -19.38000   -34.41000  
2006   35  -17.91000   -34.91000  
2006   36  -17.50000   -35.39000  
2006   37  -18.23000   -30.81000  
2006   38  -18.06000   -30.30000  
2006   39  -17.82000   -31.27000  
2006   40  -16.27000   -32.34000  
2006   41  -18.45000   -29.99000  
2006   42  -18.99000   -29.20000  
2006   43  -19.70000   -31.18000  
2006   44  -16.03000   -31.26000  
2006   45  -13.32000   -30.89000  
2006   46  -11.75000   -30.26000  
2006   47  -12.99000   -28.99000  
2006   48  -14.43000   -29.86000  
2006   49  -10.82000   -22.94000  
2006   50   -8.47000   -24.88000  
2006   51   -8.62000   -26.54000  
2006   52   -5.26000   -22.67000  
2006   53   -3.41000   -23.76000  
2006   54   -8.74000   -17.45000  
2006   55  -12.92000   -22.71000  
2006   56  -12.55000   -22.75000  
2006   57  -11.28000   -22.40000  
2006   58  -10.31000   -19.85000  
2006   59   -5.91000   -17.50000  
2006   60   -6.34000   -20.89000  
2006   61   -2.96000   -20.93000  
2006   62   -4.06000   -18.90000  
2006   63   -2.21000   -15.80000  
2006   64   -2.25000   -13.84000  
2006   65   -4.48000   -13.96000  
2006   66   -4.88000   -14.51000  
2006   67   -2.41000   -14.15000  
2006   68   -1.09000   -12.26000  
2006   69   -1.48000   -12.71000  
2006   70   -2.92000   -17.43000  
2006   71   -3.52000   -18.72000  
2006   72    1.61000   -15.75000  
2006   73   -3.73000   -13.61000  
2006   74    0.19000   -15.02000  
2006   75    3.08000   -13.52000  
2006   76    1.78000   -10.57000  
2006   77   -0.19000   -12.46000  
2006   78   -2.49000   -11.90000  
2006   79   -6.79000   -14.46000  
2006   80   -3.74000   -15.50000  
2006   81   -2.03000   -15.04000  
2006   82   -0.82000   -11.79000  
2006   83   -0.51000   -10.22000  
2006   84    2.29000   -11.03000  
2006   85   -1.31000   -12.10000  
2006   86   -3.83000   -14.13000  
2006   87   -8.26000   -14.86000  
2006   88   -4.59000   -14.89000  
2006   89   -5.48000   -15.59000  
2006   90   -9.85000   -18.00000  
2006   91   -4.29000   -16.90000  
2006   92   -1.87000   -18.15000  
2006   93   -2.31000   -12.25000  
2006   94   -1.79000   -10.95000  
2006   95    5.30000   -12.84000  
2006   96   10.01000   -13.19000  
2006   97    1.17000    -7.75000  
2006   98    4.46000    -6.92000  
2006   99    1.63000   -10.27000  
2006  100   -1.54000   -10.15000  
2006  101   -2.77000   -13.72000  
2006  102    0.80000   -13.17000  
2006  103    1.44000    -9.80000  
2006  104    2.23000    -7.14000  
2006  105    4.87000    -6.29000  
2006  106    7.06000    -5.55000  
2006  107    7.84000    -2.19000  
2006  108    5.08000    -6.01000  
2006  109   -0.02000   -12.46000  
2006  110   -8.24000   -12.55000  
2006  111   -7.44000   -15.39000  
2006  112   -4.08000   -13.91000  
2006  113    3.60000   -10.06000  
2006  114    5.43000    -7.57000  
2006  115    5.94000    -5.00000  
2006  116    2.46000    -4.70000  
2006  117    7.45000    -3.98000  
2006  118    6.28000    -3.57000  
2006  119    3.29000    -4.47000  
2006  120    9.33000    -3.63000  
2006  121    3.00000    -6.52000  
2006  122    1.22000    -9.33000  
2006  123    4.45000    -6.93000  
2006  124    8.97000    -3.39000  
2006  125   11.49000    -2.55000  
2006  126    1.16000    -6.04000  
2006  127    3.56000    -5.54000  
2006  128    0.19000    -6.93000  
2006  129    4.45000    -6.02000  
2006  130    7.95000    -7.04000  
2006  131    8.11000    -3.70000  
2006  132    8.24000    -1.77000  
2006  133    6.44000     0.11000  
2006  134    9.30000     1.42000  
2006  135   10.93000     0.55000  
2006  136   10.87000    -0.32000  
2006  137    8.65000    -3.03000  
2006  138    8.83000    -3.08000  
2006  139   10.13000    -1.76000  
2006  140    9.79000    -0.71000  
2006  141    4.07000    -2.03000  
2006  142    4.39000    -2.10000  
2006  143   10.67000     0.55000  
2006  144    9.97000     1.26000  
2006  145   12.30000    -0.48000  
2006  146    4.39000    -1.48000  
2006  147    9.64000    -1.23000  
2006  148    8.71000    -0.65000  
2006  149    7.94000    -3.27000  
2006  150   10.26000     0.93000  
2006  151   10.85000     1.80000  
2006  152   12.77000     2.36000  
2006  153   13.89000     1.89000  
2006  154   14.78000     1.09000  
2006  155   12.65000     1.29000  
2006  156    5.41000    -1.36000  
2006  157    7.40000     1.60000  
2006  158   10.12000     2.15000  
2006  159   12.50000     3.27000  
2006  160   13.95000     5.11000  
2006  161   11.30000     4.89000  
2006  162   14.74000     0.69000  
2006  163    8.17000    -0.69000  
2006  164    9.09000    -0.43000  
2006  165    8.45000     0.27000  
2006  166   10.89000    -0.05000  
2006  167   12.10000     1.63000  
2006  168   12.31000     2.55000  
2006  169    9.61000    -1.11000  
2006  170    5.03000    -1.69000  
2006  171   10.54000     1.76000  
2006  172    3.44000    -1.90000  
2006  173   10.02000    -0.13000  
2006  174   10.99000     0.14000  
2006  175   13.02000     4.21000  
2006  176   12.25000     3.99000  
2006  177   12.73000     2.05000  
2006  178   13.15000     1.28000  
2006  179    8.89000     0.43000  
2006  180   12.39000     2.69000  
2006  181   13.41000     2.29000  
2006  182   15.24000     5.46000  
2006  183   12.89000     2.34000  
2006  184    4.77000     1.22000  
2006  185   12.57000    -0.18000  
2006  186   14.53000     3.17000  
2006  187   15.87000     2.75000  
2006  188   15.28000     4.13000  
2006  189   12.35000     2.12000  
2006  190    7.11000     0.08000  
2006  191    8.98000    -0.26000  
2006  192   11.60000     1.64000  
2006  193    8.04000    -2.77000  
2006  194   10.68000     0.14000  
2006  195   10.57000     1.80000  
2006  196   13.56000     4.02000  
2006  197    7.38000     0.27000  
2006  198   11.01000     2.75000  
2006  199   12.89000     0.85000  
2006  200   14.76000     1.35000  
2006  201   11.86000     5.17000  
2006  202   11.97000     2.09000  
2006  203   15.04000     5.00000  
2006  204   13.20000     2.90000  
2006  205   13.93000     5.01000  
2006  206   11.56000     3.28000  
2006  207   12.64000     4.74000  
2006  208   12.69000     4.83000  
2006  209   11.38000     4.10000  
2006  210    8.09000     2.55000  
2006  211    6.85000     1.03000  
2006  212    8.60000     1.09000  
2006  213   10.92000     3.14000  
2006  214   13.95000     4.88000  
2006  215   15.09000     6.27000  
2006  216   16.22000     4.83000  
2006  217   16.48000     5.44000  
2006  218   11.85000     1.24000  
2006  219    3.46000     0.23000  
2006  220   11.12000    -0.38000  
2006  221   11.84000    -0.52000  
2006  222   10.33000     1.32000  
2006  223    8.05000    -1.75000  
2006  224    9.43000    -1.75000  
2006  225   11.86000     0.05000  
2006  226   10.28000     1.18000  
2006  227    8.37000     0.37000  
2006  228   12.06000     0.70000  
2006  229   13.50000    -1.33000  
2006  230   13.61000     0.62000  
2006  231    6.65000    -0.03000  
2006  232    5.99000    -3.21000  
2006  233    9.69000    -0.90000  
2006  234   11.45000     0.19000  
2006  235    8.67000     0.58000  
2006  236   11.22000    -0.09000  
2006  237   10.00000    -0.15000  
2006  238   10.12000    -0.76000  
2006  239   11.25000    -0.10000  
2006  240    1.89000    -5.46000  
2006  241    5.12000    -4.59000  
2006  242    8.85000    -6.80000  
2006  243   10.48000    -5.47000  
2006  244    7.35000    -0.49000  
2006  245    6.34000    -1.02000  
2006  246    7.31000    -0.24000  
2006  247    9.02000    -5.81000  
2006  248    8.34000    -4.13000  
2006  249    8.49000    -1.12000  
2006  250    5.30000    -2.94000  
2006  251    7.19000    -3.36000  
2006  252    6.25000    -4.42000  
2006  253    8.67000    -4.03000  
2006  254   10.20000    -3.15000  
2006  255    9.43000    -1.77000  
2006  256    9.57000    -3.63000  
2006  257    9.78000    -3.04000  
2006  258    9.16000    -1.69000  
2006  259    9.92000    -2.41000  
2006  260    6.85000    -7.07000  
2006  261   11.91000    -6.43000  
2006  262   11.75000    -0.17000  
2006  263    7.97000    -0.77000  
2006  264    2.99000    -1.97000  
2006  265    3.49000    -1.83000  
2006  266    2.85000    -1.04000  
2006  267    0.99000    -2.41000  
2006  268    0.86000    -2.36000  
2006  269   -0.08000    -2.45000  
2006  270    4.36000    -3.71000  
2006  271    8.18000    -6.66000  
2006  272    8.69000    -6.14000  
2006  273    9.65000    -5.80000  
2006  274   10.47000    -6.36000  
2006  275    8.10000    -2.69000  
2006  276    2.56000    -4.42000  
2006  277    3.47000    -6.19000  
2006  278    4.57000    -7.20000  
2006  279    2.36000    -7.06000  
2006  280    1.65000    -6.02000  
2006  281    0.99000    -9.10000  
2006  282    1.58000    -8.90000  
2006  283    2.16000   -10.18000  
2006  284    3.61000    -8.12000  
2006  285    4.29000    -7.71000  
2006  286    2.69000    -7.38000  
2006  287    5.42000    -7.38000  
2006  288    5.58000   -10.02000  
2006  289    4.89000    -7.97000  
2006  290    0.78000    -8.76000  
2006  291    3.03000    -9.87000  
2006  292    4.01000   -11.33000  
2006  293    5.31000   -11.50000  
2006  294   -4.50000   -15.45000  
2006  295   -5.31000   -13.10000  
2006  296   -4.05000   -16.78000  
2006  297   -1.91000   -16.94000  
2006  298   -3.46000   -17.56000  
2006  299   -0.13000   -18.06000  
2006  300   -1.82000   -16.56000  
2006  301    0.03000   -10.93000  
2006  302   -0.53000   -11.09000  
2006  303   -1.14000   -11.03000  
2006  304   -0.26000   -15.54000  
2006  305   -0.85000   -16.63000  
2006  306   -1.21000   -14.02000  
2006  307   -1.33000   -14.50000  
2006  308   -2.85000   -12.16000  
2006  309   -4.18000   -14.35000  
2006  310   -1.87000   -15.22000  
2006  311   -2.99000   -10.30000  
2006  312   -2.85000   -12.34000  
2006  313    1.55000   -13.32000  
2006  314   -2.94000   -14.27000  
2006  315   -2.40000   -13.83000  
2006  316   -8.59000   -14.41000  
2006  317   -7.77000   -15.41000  
2006  318   -7.68000   -16.72000  
2006  319   -7.68000   -17.04000  
2006  320  -11.86000   -19.21000  
2006  321  -11.49000   -20.91000  
2006  322   -8.77000   -22.65000  
2006  323   -7.41000   -22.74000  
2006  324   -6.98000   -19.75000  
2006  325   -9.21000   -18.02000  
2006  326  -10.35000   -18.23000  
2006  327   -8.73000   -19.55000  
2006  328   -9.09000   -20.68000  
2006  329   -9.52000   -16.94000  
2006  330   -6.71000   -22.69000  
2006  331   -6.99000   -23.28000  
2006  332   -7.69000   -21.74000  
2006  333   -6.96000   -22.29000  
2006  334   -7.50000   -19.78000  
2006  335   -6.13000   -20.95000  
2006  336  -10.79000   -22.37000  
2006  337  -19.71000   -26.70000  
2006  338  -15.16000   -30.68000  
2006  339  -12.05000   -27.71000  
2006  340  -13.27000   -17.78000  
2006  341  -11.21000   -15.95000  
2006  342   -4.53000   -18.18000  
2006  343   -6.46000   -20.99000  
2006  344   -6.54000   -22.65000  
2006  345   -7.39000   -22.93000  
2006  346  -12.45000   -22.02000  
2006  347  -11.94000   -22.78000  
2006  348  -10.43000   -23.82000  
2006  349   -6.82000   -23.37000  
2006  350   -7.79000   -22.19000  
2006  351   -6.01000   -21.77000  
2006  352   -5.50000   -19.55000  
2006  353   -7.39000   -19.50000  
2006  354  -11.91000   -24.17000  
2006  355  -13.57000   -24.10000  
2006  356  -12.74000   -23.76000  
2006  357  -10.38000   -20.33000  
2006  358  -10.54000   -25.92000  
2006  359  -11.54000   -25.48000  
2006  360   -9.23000   -18.93000  
2006  361  -16.99000   -28.36000  
2006  362  -16.09000   -28.36000  
2006  363  -14.91000   -28.65000  
2006  364  -12.52000   -30.11000  
2006  365  -13.58000   -29.97000  
2007    1  -14.87000   -26.89000  
2007    2  -13.97000   -27.66000  
2007    3  -11.59000   -27.61000  
2007    4   -9.37000   -24.84000  
2007    5  -10.62000   -25.95000  
2007    6  -11.28000   -23.86000  
2007    7  -12.66000   -24.58000  
2007    8   -8.19000   -22.28000  
2007    9   -9.95000   -22.32000  
2007   10  -12.45000   -19.08000  
2007   11  -15.44000   -20.31000  
2007   12  -16.63000   -28.45000  
2007   13  -16.07000   -28.52000  
2007   14  -15.88000   -28.82000  
2007   15  -15.80000   -29.83000  
2007   16  -14.83000   -27.48000  
2007   17  -15.64000   -27.40000  
2007   18  -18.57000   -24.90000  
2007   19  -18.76000   -25.44000  
2007   20  -19.90000   -28.21000  
2007   21  -20.52000   -34.43000  
2007   22  -21.11000   -31.12000  
2007   23  -21.94000   -34.25000  
2007   24  -22.46000   -30.91000  
2007   25  -23.09000   -32.69000  
2007   26  -22.52000   -33.24000  
2007   27  -22.62000   -31.71000  
2007   28  -22.30000   -30.40000  
2007   29  -22.61000   -36.02000  
2007   30  -21.32000   -38.52000  
2007   31  -21.36000   -39.10000  
2007   32  -19.67000   -38.05000  
2007   33  -18.07000   -34.24000  
2007   34  -19.38000   -34.41000  
2007   35  -17.91000   -34.91000  
2007   36  -17.50000   -35.39000  
2007   37  -18.23000   -30.81000  
2007   38  -18.06000   -30.30000  
2007   39  -17.82000   -31.27000  
2007   40  -16.27000   -32.34000  
2007   41  -18.45000   -29.99000  
2007   42  -18.99000   -29.20000  
2007   43  -19.70000   -31.18000  
2007   44  -16.03000   -31.26000  
2007   45  -13.32000   -30.89000  
2007   46  -11.75000   -30.26000  
2007   47  -12.99000   -28.99000  
2007   48  -14.43000   -29.86000  
2007   49  -10.82000   -22.94000  
2007   50   -8.47000   -24.88000  
2007   51   -8.62000   -26.54000  
2007   52   -5.26000   -22.67000  
2007   53   -3.41000   -23.76000  
2007   54   -8.74000   -17.45000  
2007   55  -12.92000   -22.71000  
2007   56  -12.55000   -22.75000  
2007   57  -11.28000   -22.40000  
2007   58  -10.31000   -19.85000  
2007   59   -5.91000   -17.50000  
2007   60   -6.34000   -20.89000  
2007   61   -2.96000   -20.93000  
2007   62   -4.06000   -18.90000  
2007   63   -2.21000   -15.80000  
2007   64   -2.25000   -13.84000  
2007   65   -4.48000   -13.96000  
2007   66   -4.88000   -14.51000  
2007   67   -2.41000   -14.15000  
2007   68   -1.09000   -12.26000  
2007   69   -1.48000   -12.71000  
2007   70   -2.92000   -17.43000  
2007   71   -3.52000   -18.72000  
2007   72    1.61000   -15.75000  
2007   73   -3.73000   -13.61000  
2007   74    0.19000   -15.02000  
2007   75    3.08000   -13.52000  
2007   76    1.78000   -10.57000  
2007   77   -0.19000   -12.46000  
2007   78   -2.49000   -11.90000  
2007   79   -6.79000   -14.46000  
2007   80   -3.74000   -15.50000  
2007   81   -2.03000   -15.04000  
2007   82   -0.82000   -11.79000  
2007   83   -0.51000   -10.22000  
2007   84    2.29000   -11.03000  
2007   85   -1.31000   -12.10000  
2007   86   -3.83000   -14.13000  
2007   87   -8.26000   -14.86000  
2007   88   -4.59000   -14.89000  
2007   89   -5.48000   -15.59000  
2007   90   -9.85000   -18.00000  
2007   91   -4.29000   -16.90000  
2007   92   -1.87000   -18.15000  
2007   93   -2.31000   -12.25000  
2007   94   -1.79000   -10.95000  
2007   95    5.30000   -12.84000  
2007   96   10.01000   -13.19000  
2007   97    1.17000    -7.75000  
2007   98    4.46000    -6.92000  