158160tmp.tem: Temperature data - file written by SWAT+ editor 2025-11-04 13:23:50.378510
nbyr     tstep       lat       lon      elev
  14         0    39.281    99.781  1450.000
2005    1   -4.57000   -17.58000  
2005    2   -3.84000   -16.93000  
2005    3   -2.73000   -14.60000  
2005    4   -0.53000   -11.94000  
2005    5   -0.02000   -13.72000  
2005    6   -1.08000   -14.22000  
2005    7   -1.45000   -12.70000  
2005    8    1.20000   -10.73000  
2005    9   -0.86000   -11.03000  
2005   10   -3.90000   -12.87000  
2005   11   -3.97000    -9.24000  
2005   12   -8.08000   -16.51000  
2005   13   -5.03000   -17.70000  
2005   14   -5.02000   -18.00000  
2005   15   -8.75000   -16.51000  
2005   16   -3.80000   -16.44000  
2005   17   -8.92000   -17.19000  
2005   18  -11.44000   -17.07000  
2005   19  -10.29000   -16.46000  
2005   20   -9.61000   -19.17000  
2005   21  -11.39000   -23.57000  
2005   22  -10.56000   -24.70000  
2005   23  -15.92000   -25.73000  
2005   24  -19.14000   -25.02000  
2005   25  -17.03000   -25.58000  
2005   26  -15.83000   -26.20000  
2005   27  -14.86000   -23.10000  
2005   28  -11.59000   -22.96000  
2005   29  -11.83000   -25.42000  
2005   30  -14.39000   -27.43000  
2005   31  -13.21000   -27.14000  
2005   32  -11.94000   -25.78000  
2005   33   -6.93000   -19.96000  
2005   34  -10.25000   -22.94000  
2005   35   -6.59000   -22.76000  
2005   36   -9.61000   -20.55000  
2005   37  -11.43000   -23.60000  
2005   38  -10.04000   -23.73000  
2005   39  -10.34000   -22.00000  
2005   40   -3.96000   -19.63000  
2005   41   -7.59000   -20.96000  
2005   42   -6.13000   -19.77000  
2005   43   -7.73000   -20.23000  
2005   44   -3.40000   -19.69000  
2005   45   -1.50000   -19.14000  
2005   46   -3.08000   -15.94000  
2005   47   -4.52000   -16.71000  
2005   48   -2.82000   -14.49000  
2005   49    2.11000   -14.72000  
2005   50    5.26000   -11.76000  
2005   51    6.31000   -10.07000  
2005   52    9.28000    -4.26000  
2005   53   12.74000    -2.22000  
2005   54    2.08000    -4.15000  
2005   55   -0.04000    -8.26000  
2005   56    1.35000    -9.33000  
2005   57    2.71000    -9.15000  
2005   58    4.91000    -7.23000  
2005   59    8.87000    -6.94000  
2005   60    8.32000    -5.13000  
2005   61   11.79000    -3.73000  
2005   62   11.60000    -4.02000  
2005   63   12.88000    -3.43000  
2005   64    9.41000    -2.07000  
2005   65    9.09000    -1.98000  
2005   66   11.44000    -2.51000  
2005   67   13.61000    -2.93000  
2005   68   14.51000    -1.69000  
2005   69   14.41000    -1.69000  
2005   70   13.35000    -1.13000  
2005   71   10.87000    -0.75000  
2005   72   18.88000     0.71000  
2005   73   11.47000    -1.64000  
2005   74   17.12000    -0.99000  
2005   75   20.57000     1.87000  
2005   76   17.64000     1.91000  
2005   77   17.25000     1.56000  
2005   78   11.49000     1.76000  
2005   79    7.06000    -3.56000  
2005   80   12.37000    -3.83000  
2005   81   12.81000    -3.57000  
2005   82   15.52000    -2.45000  
2005   83   17.00000    -0.68000  
2005   84   18.71000     0.31000  
2005   85   15.26000     0.82000  
2005   86   12.19000     0.24000  
2005   87    8.25000    -1.13000  
2005   88   12.34000    -1.35000  
2005   89   12.25000    -2.22000  
2005   90    5.61000    -5.60000  
2005   91   10.77000    -3.47000  
2005   92   14.40000    -1.50000  
2005   93   14.57000    -0.22000  
2005   94   17.16000     0.79000  
2005   95   19.39000     2.69000  
2005   96   24.29000     6.18000  
2005   97   17.34000     7.49000  
2005   98   22.11000     7.90000  
2005   99   15.95000     4.85000  
2005  100   16.16000     5.01000  
2005  101   11.57000     0.83000  
2005  102   15.81000     1.08000  
2005  103   17.75000     4.15000  
2005  104   19.53000     6.34000  
2005  105   23.06000     8.17000  
2005  106   26.89000    10.97000  
2005  107   26.12000    11.17000  
2005  108   20.52000     8.40000  
2005  109   16.06000     1.38000  
2005  110    5.78000     0.93000  
2005  111    9.36000     0.07000  
2005  112   11.34000    -1.11000  
2005  113   18.49000     1.63000  
2005  114   21.93000     2.80000  
2005  115   24.21000     7.08000  
2005  116   21.32000     7.35000  
2005  117   24.61000     7.87000  
2005  118   24.73000    10.21000  
2005  119   19.49000    10.51000  
2005  120   27.14000    12.29000  
2005  121   21.87000     9.18000  
2005  122   19.31000     5.07000  
2005  123   19.60000     7.19000  
2005  124   24.61000     9.99000  
2005  125   29.25000    13.81000  
2005  126   18.11000     9.40000  
2005  127   21.38000    10.94000  
2005  128   17.74000     4.52000  
2005  129   20.38000     4.97000  
2005  130   24.38000     6.59000  
2005  131   24.26000     7.47000  
2005  132   24.76000     9.91000  
2005  133   26.79000    11.61000  
2005  134   27.83000    11.00000  
2005  135   30.53000    16.14000  
2005  136   29.57000    13.10000  
2005  137   24.56000    10.73000  
2005  138   24.87000    10.30000  
2005  139   26.56000    11.83000  
2005  140   25.98000    13.61000  
2005  141   20.52000    10.83000  
2005  142   25.71000    10.31000  
2005  143   29.15000    12.56000  
2005  144   29.78000    14.33000  
2005  145   31.68000    15.36000  
2005  146   20.99000     9.67000  
2005  147   27.70000     9.80000  
2005  148   26.25000    12.61000  
2005  149   26.67000    10.35000  
2005  150   27.46000    11.44000  
2005  151   28.98000    16.89000  
2005  152   29.41000    12.85000  
2005  153   30.97000    15.27000  
2005  154   32.46000    17.56000  
2005  155   31.84000    17.44000  
2005  156   22.73000    11.97000  
2005  157   26.07000    16.54000  
2005  158   28.72000    17.35000  
2005  159   30.56000    14.38000  
2005  160   33.06000    17.41000  
2005  161   32.64000    17.09000  
2005  162   33.67000    18.00000  
2005  163   24.28000    13.70000  
2005  164   28.98000    14.98000  
2005  165   25.71000    12.89000  
2005  166   29.35000    14.24000  
2005  167   31.54000    13.94000  
2005  168   30.56000    14.36000  
2005  169   29.08000    16.62000  
2005  170   21.46000    11.56000  
2005  171   27.45000    15.93000  
2005  172   20.55000    12.39000  
2005  173   26.49000    10.17000  
2005  174   28.25000    14.87000  
2005  175   31.04000    14.89000  
2005  176   31.00000    20.11000  
2005  177   31.01000    15.59000  
2005  178   31.05000    16.98000  
2005  179   23.90000    12.58000  
2005  180   30.60000    16.01000  
2005  181   32.88000    18.91000  
2005  182   33.75000    18.77000  
2005  183   33.13000    20.99000  
2005  184   22.85000    13.23000  
2005  185   31.42000    13.95000  
2005  186   33.40000    15.43000  
2005  187   34.93000    18.00000  
2005  188   34.04000    18.83000  
2005  189   31.46000    19.97000  
2005  190   27.99000    15.04000  
2005  191   25.12000    14.25000  
2005  192   29.40000    16.31000  
2005  193   28.38000    13.68000  
2005  194   26.87000    14.16000  
2005  195   30.48000    14.75000  
2005  196   32.92000    19.22000  
2005  197   23.06000    14.01000  
2005  198   30.16000    16.06000  
2005  199   30.93000    15.96000  
2005  200   33.06000    16.47000  
2005  201   33.18000    18.63000  
2005  202   29.74000    15.41000  
2005  203   33.86000    19.34000  
2005  204   32.09000    20.13000  
2005  205   31.20000    18.77000  
2005  206   31.56000    18.47000  
2005  207   27.74000    19.96000  
2005  208   24.81000    18.35000  
2005  209   25.39000    17.74000  
2005  210   21.83000    14.37000  
2005  211   18.34000    13.97000  
2005  212   23.26000    13.62000  
2005  213   28.22000    14.52000  
2005  214   30.85000    15.52000  
2005  215   32.57000    16.26000  
2005  216   33.94000    19.27000  
2005  217   34.70000    20.18000  
2005  218   27.14000    17.60000  
2005  219   17.94000    12.47000  
2005  220   24.75000    12.17000  
2005  221   24.41000    12.92000  
2005  222   26.95000    15.83000  
2005  223   23.94000    13.86000  
2005  224   27.07000    14.40000  
2005  225   28.20000    15.64000  
2005  226   28.76000    17.40000  
2005  227   24.82000    13.63000  
2005  228   29.05000    13.66000  
2005  229   30.43000    14.43000  
2005  230   32.66000    17.84000  
2005  231   26.82000    13.40000  
2005  232   20.97000     9.73000  
2005  233   26.05000    10.13000  
2005  234   27.78000    12.21000  
2005  235   27.97000    12.17000  
2005  236   29.58000    13.39000  
2005  237   28.41000    12.67000  
2005  238   28.48000    13.12000  
2005  239   29.45000    15.32000  
2005  240   20.75000     8.85000  
2005  241   20.59000     7.29000  
2005  242   24.60000    10.29000  
2005  243   27.02000     9.67000  
2005  244   25.36000    10.98000  
2005  245   25.66000    11.74000  
2005  246   26.63000    10.47000  
2005  247   25.95000     8.25000  
2005  248   27.19000    11.26000  
2005  249   23.53000    12.01000  
2005  250   23.56000    11.16000  
2005  251   20.43000    11.83000  
2005  252   21.41000     6.15000  
2005  253   25.79000     7.85000  
2005  254   27.77000     9.94000  
2005  255   28.67000    11.18000  
2005  256   27.92000    12.63000  
2005  257   27.03000    10.64000  
2005  258   27.14000     9.49000  
2005  259   27.68000     9.51000  
2005  260   24.49000    11.03000  
2005  261   28.80000    12.81000  
2005  262   28.32000    12.80000  
2005  263   24.11000    13.49000  
2005  264   16.48000    11.41000  
2005  265   16.96000    10.87000  
2005  266   16.26000    10.57000  
2005  267   13.37000     7.71000  
2005  268   13.06000     9.40000  
2005  269   10.68000     9.29000  
2005  270   17.84000     6.26000  
2005  271   23.15000     7.36000  
2005  272   24.44000     7.69000  
2005  273   27.40000    10.12000  
2005  274   27.66000     9.19000  
2005  275   24.72000     9.81000  
2005  276   16.74000     9.54000  
2005  277   17.22000     6.67000  
2005  278   21.09000     6.55000  
2005  279   17.09000     6.11000  
2005  280   16.46000     6.69000  
2005  281   19.03000     4.99000  
2005  282   16.95000     3.74000  
2005  283   16.27000     3.29000  
2005  284   19.81000     3.67000  
2005  285   20.60000     5.81000  
2005  286   18.42000     6.47000  
2005  287   22.16000     6.00000  
2005  288   20.38000     5.97000  
2005  289   17.90000     5.68000  
2005  290   15.63000     3.70000  
2005  291   19.33000     3.54000  
2005  292   21.31000     3.97000  
2005  293   22.73000     3.40000  
2005  294    7.89000     1.17000  
2005  295    9.46000    -3.32000  
2005  296    9.98000    -3.48000  
2005  297   13.96000    -3.02000  
2005  298   12.47000    -2.18000  
2005  299   16.14000    -1.26000  
2005  300   10.33000    -0.19000  
2005  301   13.54000    -1.87000  
2005  302   14.27000    -2.49000  
2005  303   13.55000    -2.89000  
2005  304   13.86000    -2.39000  
2005  305   14.56000    -2.05000  
2005  306   14.68000    -1.98000  
2005  307   14.18000    -2.57000  
2005  308   11.25000    -3.42000  
2005  309   11.08000    -3.52000  
2005  310   15.27000    -0.72000  
2005  311   13.88000     0.11000  
2005  312   12.60000     1.33000  
2005  313   15.91000     0.79000  
2005  314    8.39000    -1.06000  
2005  315   11.88000    -0.86000  
2005  316    4.07000    -5.27000  
2005  317    5.48000    -5.15000  
2005  318    5.02000    -5.57000  
2005  319    5.97000    -5.55000  
2005  320    1.84000    -2.61000  
2005  321    1.45000    -7.92000  
2005  322    3.72000    -8.17000  
2005  323    7.41000    -7.19000  
2005  324    5.47000    -7.48000  
2005  325    3.96000    -7.70000  
2005  326    4.28000    -4.10000  
2005  327    5.27000    -7.35000  
2005  328    6.29000    -7.64000  
2005  329    3.62000    -6.02000  
2005  330    3.16000    -7.07000  
2005  331    4.17000    -6.85000  
2005  332    6.85000    -6.68000  
2005  333    8.12000    -6.70000  
2005  334    4.58000    -6.28000  
2005  335    9.88000    -6.36000  
2005  336    4.88000   -11.31000  
2005  337   -9.64000   -21.37000  
2005  338   -6.29000   -21.68000  
2005  339   -2.31000   -15.82000  
2005  340   -1.41000   -11.04000  
2005  341    0.68000    -5.17000  
2005  342    6.95000    -7.21000  
2005  343    7.17000    -7.60000  
2005  344    5.99000    -8.58000  
2005  345    4.32000    -7.28000  
2005  346    1.29000    -8.91000  
2005  347    0.98000    -9.13000  
2005  348    2.67000    -8.48000  
2005  349    3.81000    -8.23000  
2005  350    3.69000    -9.51000  
2005  351    7.09000    -8.87000  
2005  352    5.34000    -7.42000  
2005  353    0.87000    -7.32000  
2005  354   -1.02000   -15.67000  
2005  355   -9.65000   -15.84000  
2005  356   -1.27000   -13.86000  
2005  357    1.47000   -11.85000  
2005  358    1.14000   -11.53000  
2005  359   -2.49000   -12.40000  
2005  360    2.90000   -10.00000  
2005  361   -5.45000   -17.65000  
2005  362   -6.34000   -19.15000  
2005  363   -6.66000   -19.24000  
2005  364   -6.17000   -17.48000  
2005  365   -8.12000   -17.64000  
2006    1   -4.57000   -17.58000  
2006    2   -3.84000   -16.93000  
2006    3   -2.73000   -14.60000  
2006    4   -0.53000   -11.94000  
2006    5   -0.02000   -13.72000  
2006    6   -1.08000   -14.22000  
2006    7   -1.45000   -12.70000  
2006    8    1.20000   -10.73000  
2006    9   -0.86000   -11.03000  
2006   10   -3.90000   -12.87000  
2006   11   -3.97000    -9.24000  
2006   12   -8.08000   -16.51000  
2006   13   -5.03000   -17.70000  
2006   14   -5.02000   -18.00000  
2006   15   -8.75000   -16.51000  
2006   16   -3.80000   -16.44000  
2006   17   -8.92000   -17.19000  
2006   18  -11.44000   -17.07000  
2006   19  -10.29000   -16.46000  
2006   20   -9.61000   -19.17000  
2006   21  -11.39000   -23.57000  
2006   22  -10.56000   -24.70000  
2006   23  -15.92000   -25.73000  
2006   24  -19.14000   -25.02000  
2006   25  -17.03000   -25.58000  
2006   26  -15.83000   -26.20000  
2006   27  -14.86000   -23.10000  
2006   28  -11.59000   -22.96000  
2006   29  -11.83000   -25.42000  
2006   30  -14.39000   -27.43000  
2006   31  -13.21000   -27.14000  
2006   32  -11.94000   -25.78000  
2006   33   -6.93000   -19.96000  
2006   34  -10.25000   -22.94000  
2006   35   -6.59000   -22.76000  
2006   36   -9.61000   -20.55000  
2006   37  -11.43000   -23.60000  
2006   38  -10.04000   -23.73000  
2006   39  -10.34000   -22.00000  
2006   40   -3.96000   -19.63000  
2006   41   -7.59000   -20.96000  
2006   42   -6.13000   -19.77000  
2006   43   -7.73000   -20.23000  
2006   44   -3.40000   -19.69000  
2006   45   -1.50000   -19.14000  
2006   46   -3.08000   -15.94000  
2006   47   -4.52000   -16.71000  
2006   48   -2.82000   -14.49000  
2006   49    2.11000   -14.72000  
2006   50    5.26000   -11.76000  
2006   51    6.31000   -10.07000  
2006   52    9.28000    -4.26000  
2006   53   12.74000    -2.22000  
2006   54    2.08000    -4.15000  
2006   55   -0.04000    -8.26000  
2006   56    1.35000    -9.33000  
2006   57    2.71000    -9.15000  
2006   58    4.91000    -7.23000  
2006   59    8.87000    -6.94000  
2006   60    8.32000    -5.13000  
2006   61   11.79000    -3.73000  
2006   62   11.60000    -4.02000  
2006   63   12.88000    -3.43000  
2006   64    9.41000    -2.07000  
2006   65    9.09000    -1.98000  
2006   66   11.44000    -2.51000  
2006   67   13.61000    -2.93000  
2006   68   14.51000    -1.69000  
2006   69   14.41000    -1.69000  
2006   70   13.35000    -1.13000  
2006   71   10.87000    -0.75000  
2006   72   18.88000     0.71000  
2006   73   11.47000    -1.64000  
2006   74   17.12000    -0.99000  
2006   75   20.57000     1.87000  
2006   76   17.64000     1.91000  
2006   77   17.25000     1.56000  
2006   78   11.49000     1.76000  
2006   79    7.06000    -3.56000  
2006   80   12.37000    -3.83000  
2006   81   12.81000    -3.57000  
2006   82   15.52000    -2.45000  
2006   83   17.00000    -0.68000  
2006   84   18.71000     0.31000  
2006   85   15.26000     0.82000  
2006   86   12.19000     0.24000  
2006   87    8.25000    -1.13000  
2006   88   12.34000    -1.35000  
2006   89   12.25000    -2.22000  
2006   90    5.61000    -5.60000  
2006   91   10.77000    -3.47000  
2006   92   14.40000    -1.50000  
2006   93   14.57000    -0.22000  
2006   94   17.16000     0.79000  
2006   95   19.39000     2.69000  
2006   96   24.29000     6.18000  
2006   97   17.34000     7.49000  
2006   98   22.11000     7.90000  
2006   99   15.95000     4.85000  
2006  100   16.16000     5.01000  
2006  101   11.57000     0.83000  
2006  102   15.81000     1.08000  
2006  103   17.75000     4.15000  
2006  104   19.53000     6.34000  
2006  105   23.06000     8.17000  
2006  106   26.89000    10.97000  
2006  107   26.12000    11.17000  
2006  108   20.52000     8.40000  
2006  109   16.06000     1.38000  
2006  110    5.78000     0.93000  
2006  111    9.36000     0.07000  
2006  112   11.34000    -1.11000  
2006  113   18.49000     1.63000  
2006  114   21.93000     2.80000  
2006  115   24.21000     7.08000  
2006  116   21.32000     7.35000  
2006  117   24.61000     7.87000  
2006  118   24.73000    10.21000  
2006  119   19.49000    10.51000  
2006  120   27.14000    12.29000  
2006  121   21.87000     9.18000  
2006  122   19.31000     5.07000  
2006  123   19.60000     7.19000  
2006  124   24.61000     9.99000  
2006  125   29.25000    13.81000  
2006  126   18.11000     9.40000  
2006  127   21.38000    10.94000  
2006  128   17.74000     4.52000  
2006  129   20.38000     4.97000  
2006  130   24.38000     6.59000  
2006  131   24.26000     7.47000  
2006  132   24.76000     9.91000  
2006  133   26.79000    11.61000  
2006  134   27.83000    11.00000  
2006  135   30.53000    16.14000  
2006  136   29.57000    13.10000  
2006  137   24.56000    10.73000  
2006  138   24.87000    10.30000  
2006  139   26.56000    11.83000  
2006  140   25.98000    13.61000  
2006  141   20.52000    10.83000  
2006  142   25.71000    10.31000  
2006  143   29.15000    12.56000  
2006  144   29.78000    14.33000  
2006  145   31.68000    15.36000  
2006  146   20.99000     9.67000  
2006  147   27.70000     9.80000  
2006  148   26.25000    12.61000  
2006  149   26.67000    10.35000  
2006  150   27.46000    11.44000  
2006  151   28.98000    16.89000  
2006  152   29.41000    12.85000  
2006  153   30.97000    15.27000  
2006  154   32.46000    17.56000  
2006  155   31.84000    17.44000  
2006  156   22.73000    11.97000  
2006  157   26.07000    16.54000  
2006  158   28.72000    17.35000  
2006  159   30.56000    14.38000  
2006  160   33.06000    17.41000  
2006  161   32.64000    17.09000  
2006  162   33.67000    18.00000  
2006  163   24.28000    13.70000  
2006  164   28.98000    14.98000  
2006  165   25.71000    12.89000  
2006  166   29.35000    14.24000  
2006  167   31.54000    13.94000  
2006  168   30.56000    14.36000  
2006  169   29.08000    16.62000  
2006  170   21.46000    11.56000  
2006  171   27.45000    15.93000  
2006  172   20.55000    12.39000  
2006  173   26.49000    10.17000  
2006  174   28.25000    14.87000  
2006  175   31.04000    14.89000  
2006  176   31.00000    20.11000  
2006  177   31.01000    15.59000  
2006  178   31.05000    16.98000  
2006  179   23.90000    12.58000  
2006  180   30.60000    16.01000  
2006  181   32.88000    18.91000  
2006  182   33.75000    18.77000  
2006  183   33.13000    20.99000  
2006  184   22.85000    13.23000  
2006  185   31.42000    13.95000  
2006  186   33.40000    15.43000  
2006  187   34.93000    18.00000  
2006  188   34.04000    18.83000  
2006  189   31.46000    19.97000  
2006  190   27.99000    15.04000  
2006  191   25.12000    14.25000  
2006  192   29.40000    16.31000  
2006  193   28.38000    13.68000  
2006  194   26.87000    14.16000  
2006  195   30.48000    14.75000  
2006  196   32.92000    19.22000  
2006  197   23.06000    14.01000  
2006  198   30.16000    16.06000  
2006  199   30.93000    15.96000  
2006  200   33.06000    16.47000  
2006  201   33.18000    18.63000  
2006  202   29.74000    15.41000  
2006  203   33.86000    19.34000  
2006  204   32.09000    20.13000  
2006  205   31.20000    18.77000  
2006  206   31.56000    18.47000  
2006  207   27.74000    19.96000  
2006  208   24.81000    18.35000  
2006  209   25.39000    17.74000  
2006  210   21.83000    14.37000  
2006  211   18.34000    13.97000  
2006  212   23.26000    13.62000  
2006  213   28.22000    14.52000  
2006  214   30.85000    15.52000  
2006  215   32.57000    16.26000  
2006  216   33.94000    19.27000  
2006  217   34.70000    20.18000  
2006  218   27.14000    17.60000  
2006  219   17.94000    12.47000  
2006  220   24.75000    12.17000  
2006  221   24.41000    12.92000  
2006  222   26.95000    15.83000  
2006  223   23.94000    13.86000  
2006  224   27.07000    14.40000  
2006  225   28.20000    15.64000  
2006  226   28.76000    17.40000  
2006  227   24.82000    13.63000  
2006  228   29.05000    13.66000  
2006  229   30.43000    14.43000  
2006  230   32.66000    17.84000  
2006  231   26.82000    13.40000  
2006  232   20.97000     9.73000  
2006  233   26.05000    10.13000  
2006  234   27.78000    12.21000  
2006  235   27.97000    12.17000  
2006  236   29.58000    13.39000  
2006  237   28.41000    12.67000  
2006  238   28.48000    13.12000  
2006  239   29.45000    15.32000  
2006  240   20.75000     8.85000  
2006  241   20.59000     7.29000  
2006  242   24.60000    10.29000  
2006  243   27.02000     9.67000  
2006  244   25.36000    10.98000  
2006  245   25.66000    11.74000  
2006  246   26.63000    10.47000  
2006  247   25.95000     8.25000  
2006  248   27.19000    11.26000  
2006  249   23.53000    12.01000  
2006  250   23.56000    11.16000  
2006  251   20.43000    11.83000  
2006  252   21.41000     6.15000  
2006  253   25.79000     7.85000  
2006  254   27.77000     9.94000  
2006  255   28.67000    11.18000  
2006  256   27.92000    12.63000  
2006  257   27.03000    10.64000  
2006  258   27.14000     9.49000  
2006  259   27.68000     9.51000  
2006  260   24.49000    11.03000  
2006  261   28.80000    12.81000  
2006  262   28.32000    12.80000  
2006  263   24.11000    13.49000  
2006  264   16.48000    11.41000  
2006  265   16.96000    10.87000  
2006  266   16.26000    10.57000  
2006  267   13.37000     7.71000  
2006  268   13.06000     9.40000  
2006  269   10.68000     9.29000  
2006  270   17.84000     6.26000  
2006  271   23.15000     7.36000  
2006  272   24.44000     7.69000  
2006  273   27.40000    10.12000  
2006  274   27.66000     9.19000  
2006  275   24.72000     9.81000  
2006  276   16.74000     9.54000  
2006  277   17.22000     6.67000  
2006  278   21.09000     6.55000  
2006  279   17.09000     6.11000  
2006  280   16.46000     6.69000  
2006  281   19.03000     4.99000  
2006  282   16.95000     3.74000  
2006  283   16.27000     3.29000  
2006  284   19.81000     3.67000  
2006  285   20.60000     5.81000  
2006  286   18.42000     6.47000  
2006  287   22.16000     6.00000  
2006  288   20.38000     5.97000  
2006  289   17.90000     5.68000  
2006  290   15.63000     3.70000  
2006  291   19.33000     3.54000  
2006  292   21.31000     3.97000  
2006  293   22.73000     3.40000  
2006  294    7.89000     1.17000  
2006  295    9.46000    -3.32000  
2006  296    9.98000    -3.48000  
2006  297   13.96000    -3.02000  
2006  298   12.47000    -2.18000  
2006  299   16.14000    -1.26000  
2006  300   10.33000    -0.19000  
2006  301   13.54000    -1.87000  
2006  302   14.27000    -2.49000  
2006  303   13.55000    -2.89000  
2006  304   13.86000    -2.39000  
2006  305   14.56000    -2.05000  
2006  306   14.68000    -1.98000  
2006  307   14.18000    -2.57000  
2006  308   11.25000    -3.42000  
2006  309   11.08000    -3.52000  
2006  310   15.27000    -0.72000  
2006  311   13.88000     0.11000  
2006  312   12.60000     1.33000  
2006  313   15.91000     0.79000  
2006  314    8.39000    -1.06000  
2006  315   11.88000    -0.86000  
2006  316    4.07000    -5.27000  
2006  317    5.48000    -5.15000  
2006  318    5.02000    -5.57000  
2006  319    5.97000    -5.55000  
2006  320    1.84000    -2.61000  
2006  321    1.45000    -7.92000  
2006  322    3.72000    -8.17000  
2006  323    7.41000    -7.19000  
2006  324    5.47000    -7.48000  
2006  325    3.96000    -7.70000  
2006  326    4.28000    -4.10000  
2006  327    5.27000    -7.35000  
2006  328    6.29000    -7.64000  
2006  329    3.62000    -6.02000  
2006  330    3.16000    -7.07000  
2006  331    4.17000    -6.85000  
2006  332    6.85000    -6.68000  
2006  333    8.12000    -6.70000  
2006  334    4.58000    -6.28000  
2006  335    9.88000    -6.36000  
2006  336    4.88000   -11.31000  
2006  337   -9.64000   -21.37000  
2006  338   -6.29000   -21.68000  
2006  339   -2.31000   -15.82000  
2006  340   -1.41000   -11.04000  
2006  341    0.68000    -5.17000  
2006  342    6.95000    -7.21000  
2006  343    7.17000    -7.60000  
2006  344    5.99000    -8.58000  
2006  345    4.32000    -7.28000  
2006  346    1.29000    -8.91000  
2006  347    0.98000    -9.13000  
2006  348    2.67000    -8.48000  
2006  349    3.81000    -8.23000  
2006  350    3.69000    -9.51000  
2006  351    7.09000    -8.87000  
2006  352    5.34000    -7.42000  
2006  353    0.87000    -7.32000  
2006  354   -1.02000   -15.67000  
2006  355   -9.65000   -15.84000  
2006  356   -1.27000   -13.86000  
2006  357    1.47000   -11.85000  
2006  358    1.14000   -11.53000  
2006  359   -2.49000   -12.40000  
2006  360    2.90000   -10.00000  
2006  361   -5.45000   -17.65000  
2006  362   -6.34000   -19.15000  
2006  363   -6.66000   -19.24000  
2006  364   -6.17000   -17.48000  
2006  365   -8.12000   -17.64000  
2007    1   -4.57000   -17.58000  
2007    2   -3.84000   -16.93000  
2007    3   -2.73000   -14.60000  
2007    4   -0.53000   -11.94000  
2007    5   -0.02000   -13.72000  
2007    6   -1.08000   -14.22000  
2007    7   -1.45000   -12.70000  
2007    8    1.20000   -10.73000  
2007    9   -0.86000   -11.03000  
2007   10   -3.90000   -12.87000  
2007   11   -3.97000    -9.24000  
2007   12   -8.08000   -16.51000  
2007   13   -5.03000   -17.70000  
2007   14   -5.02000   -18.00000  
2007   15   -8.75000   -16.51000  
2007   16   -3.80000   -16.44000  
2007   17   -8.92000   -17.19000  
2007   18  -11.44000   -17.07000  
2007   19  -10.29000   -16.46000  
2007   20   -9.61000   -19.17000  
2007   21  -11.39000   -23.57000  
2007   22  -10.56000   -24.70000  
2007   23  -15.92000   -25.73000  
2007   24  -19.14000   -25.02000  
2007   25  -17.03000   -25.58000  
2007   26  -15.83000   -26.20000  
2007   27  -14.86000   -23.10000  
2007   28  -11.59000   -22.96000  
2007   29  -11.83000   -25.42000  
2007   30  -14.39000   -27.43000  
2007   31  -13.21000   -27.14000  
2007   32  -11.94000   -25.78000  
2007   33   -6.93000   -19.96000  
2007   34  -10.25000   -22.94000  
2007   35   -6.59000   -22.76000  
2007   36   -9.61000   -20.55000  
2007   37  -11.43000   -23.60000  
2007   38  -10.04000   -23.73000  
2007   39  -10.34000   -22.00000  
2007   40   -3.96000   -19.63000  
2007   41   -7.59000   -20.96000  
2007   42   -6.13000   -19.77000  
2007   43   -7.73000   -20.23000  
2007   44   -3.40000   -19.69000  
2007   45   -1.50000   -19.14000  
2007   46   -3.08000   -15.94000  
2007   47   -4.52000   -16.71000  
2007   48   -2.82000   -14.49000  
2007   49    2.11000   -14.72000  
2007   50    5.26000   -11.76000  
2007   51    6.31000   -10.07000  
2007   52    9.28000    -4.26000  
2007   53   12.74000    -2.22000  
2007   54    2.08000    -4.15000  
2007   55   -0.04000    -8.26000  
2007   56    1.35000    -9.33000  
2007   57    2.71000    -9.15000  
2007   58    4.91000    -7.23000  
2007   59    8.87000    -6.94000  
2007   60    8.32000    -5.13000  
2007   61   11.79000    -3.73000  
2007   62   11.60000    -4.02000  
2007   63   12.88000    -3.43000  
2007   64    9.41000    -2.07000  
2007   65    9.09000    -1.98000  
2007   66   11.44000    -2.51000  
2007   67   13.61000    -2.93000  
2007   68   14.51000    -1.69000  
2007   69   14.41000    -1.69000  
2007   70   13.35000    -1.13000  
2007   71   10.87000    -0.75000  
2007   72   18.88000     0.71000  
2007   73   11.47000    -1.64000  
2007   74   17.12000    -0.99000  
2007   75   20.57000     1.87000  
2007   76   17.64000     1.91000  
2007   77   17.25000     1.56000  
2007   78   11.49000     1.76000  
2007   79    7.06000    -3.56000  
2007   80   12.37000    -3.83000  
2007   81   12.81000    -3.57000  
2007   82   15.52000    -2.45000  
2007   83   17.00000    -0.68000  
2007   84   18.71000     0.31000  
2007   85   15.26000     0.82000  
2007   86   12.19000     0.24000  
2007   87    8.25000    -1.13000  
2007   88   12.34000    -1.35000  
2007   89   12.25000    -2.22000  
2007   90    5.61000    -5.60000  
2007   91   10.77000    -3.47000  
2007   92   14.40000    -1.50000  
2007   93   14.57000    -0.22000  
2007   94   17.16000     0.79000  
2007   95   19.39000     2.69000  
2007   96   24.29000     6.18000  
2007   97   17.34000     7.49000  
2007   98   22.11000     7.90000  