162157tmp.tem: Temperature data - file written by SWAT+ editor 2025-11-04 13:23:50.454902
nbyr     tstep       lat       lon      elev
  14         0    40.281    99.031  1204.000
2005    1   -4.91000   -20.78000  
2005    2   -2.81000   -19.13000  
2005    3   -2.54000   -19.75000  
2005    4   -0.63000   -19.53000  
2005    5   -0.48000   -18.91000  
2005    6   -1.28000   -17.05000  
2005    7   -3.37000   -16.93000  
2005    8   -1.36000   -14.27000  
2005    9   -0.29000   -11.72000  
2005   10   -3.27000   -13.24000  
2005   11   -4.46000   -12.87000  
2005   12   -6.13000   -16.26000  
2005   13   -4.47000   -18.32000  
2005   14   -3.53000   -18.02000  
2005   15   -3.97000   -19.81000  
2005   16   -2.07000   -16.05000  
2005   17   -4.32000   -16.73000  
2005   18   -5.71000   -17.46000  
2005   19   -8.68000   -19.60000  
2005   20  -12.63000   -26.71000  
2005   21  -13.39000   -30.04000  
2005   22  -15.78000   -31.10000  
2005   23  -18.41000   -31.78000  
2005   24  -20.40000   -31.19000  
2005   25  -17.08000   -28.23000  
2005   26  -17.58000   -29.20000  
2005   27  -16.12000   -25.68000  
2005   28  -13.77000   -22.93000  
2005   29  -14.44000   -29.93000  
2005   30  -17.07000   -30.93000  
2005   31  -16.67000   -31.00000  
2005   32  -16.44000   -30.86000  
2005   33  -12.08000   -26.43000  
2005   34   -9.81000   -25.83000  
2005   35   -7.66000   -26.28000  
2005   36   -8.53000   -28.39000  
2005   37   -9.52000   -26.81000  
2005   38   -9.31000   -28.29000  
2005   39   -9.30000   -26.31000  
2005   40   -4.83000   -24.75000  
2005   41   -6.93000   -22.83000  
2005   42   -7.40000   -23.17000  
2005   43   -3.89000   -19.78000  
2005   44   -3.57000   -22.18000  
2005   45   -4.43000   -22.70000  
2005   46   -4.16000   -19.31000  
2005   47   -4.28000   -20.57000  
2005   48    0.77000   -17.14000  
2005   49    3.76000   -16.53000  
2005   50    5.74000   -11.74000  
2005   51    7.07000    -9.47000  
2005   52   11.70000    -8.92000  
2005   53    9.47000    -4.11000  
2005   54    4.66000    -3.39000  
2005   55    3.41000   -11.23000  
2005   56    1.13000   -13.12000  
2005   57    4.23000   -14.09000  
2005   58    7.05000   -10.15000  
2005   59   10.41000    -7.35000  
2005   60    9.12000    -9.40000  
2005   61   11.63000    -9.67000  
2005   62   10.67000    -7.83000  
2005   63   12.91000    -6.80000  
2005   64   11.30000    -0.36000  
2005   65    9.63000    -3.37000  
2005   66   12.94000    -4.22000  
2005   67   14.39000    -4.70000  
2005   68   16.87000    -4.07000  
2005   69   16.16000    -2.44000  
2005   70   16.14000    -0.77000  
2005   71    7.87000    -4.35000  
2005   72   18.89000    -5.03000  
2005   73   12.07000    -3.81000  
2005   74   17.63000    -4.52000  
2005   75   21.67000    -2.73000  
2005   76   21.55000     2.26000  
2005   77   14.81000    -0.19000  
2005   78   13.24000    -0.65000  
2005   79   11.77000    -5.69000  
2005   80   14.52000    -6.82000  
2005   81   13.22000    -5.71000  
2005   82   17.93000    -5.70000  
2005   83   19.27000    -3.19000  
2005   84   20.94000    -0.13000  
2005   85   16.17000     1.98000  
2005   86    8.26000    -1.47000  
2005   87   12.05000    -1.62000  
2005   88   12.88000    -0.18000  
2005   89   10.93000    -1.32000  
2005   90    8.30000    -6.23000  
2005   91   12.37000    -6.85000  
2005   92   15.37000    -4.77000  
2005   93   16.63000    -2.78000  
2005   94   18.38000    -1.18000  
2005   95   21.73000     2.81000  
2005   96   23.97000     0.98000  
2005   97   19.46000     5.34000  
2005   98   22.01000     6.05000  
2005   99   16.96000     2.78000  
2005  100   14.74000     2.81000  
2005  101   16.35000     1.12000  
2005  102   16.89000    -0.36000  
2005  103   19.52000     1.72000  
2005  104   21.80000     1.70000  
2005  105   24.75000     3.43000  
2005  106   26.56000     8.21000  
2005  107   27.76000     8.64000  
2005  108   24.26000     4.85000  
2005  109   14.85000     0.73000  
2005  110    7.33000     0.93000  
2005  111   11.20000    -0.49000  
2005  112   13.29000    -3.01000  
2005  113   20.56000    -1.85000  
2005  114   24.20000    -0.58000  
2005  115   25.94000     1.73000  
2005  116   24.22000     5.22000  
2005  117   26.90000     6.82000  
2005  118   27.49000     9.91000  
2005  119   20.90000    10.27000  
2005  120   28.04000    11.07000  
2005  121   20.58000     7.01000  
2005  122   16.81000     1.57000  
2005  123   23.36000     5.43000  
2005  124   24.83000     8.07000  
2005  125   30.37000    11.49000  
2005  126   22.34000    13.64000  
2005  127   23.20000    10.76000  
2005  128   18.93000     2.70000  
2005  129   21.90000     4.91000  
2005  130   26.10000     7.74000  
2005  131   25.27000     9.48000  
2005  132   26.26000     7.57000  
2005  133   29.35000    10.63000  
2005  134   31.80000    13.24000  
2005  135   32.59000    16.98000  
2005  136   31.36000    16.73000  
2005  137   27.17000    13.36000  
2005  138   26.30000     9.75000  
2005  139   29.58000    13.59000  
2005  140   27.50000    16.14000  
2005  141   26.72000    10.19000  
2005  142   28.60000     9.27000  
2005  143   31.47000    13.33000  
2005  144   32.60000    14.39000  
2005  145   34.29000    17.10000  
2005  146   25.77000     9.81000  
2005  147   29.28000    14.00000  
2005  148   28.59000    12.66000  
2005  149   26.66000     8.98000  
2005  150   29.58000    11.35000  
2005  151   31.92000    17.03000  
2005  152   32.27000    12.39000  
2005  153   31.80000    14.39000  
2005  154   34.65000    17.95000  
2005  155   34.02000    18.31000  
2005  156   26.41000    12.18000  
2005  157   28.28000    15.62000  
2005  158   32.19000    15.60000  
2005  159   34.77000    15.58000  
2005  160   36.19000    16.82000  
2005  161   35.66000    17.97000  
2005  162   37.44000    18.79000  
2005  163   27.36000    15.69000  
2005  164   30.39000    13.36000  
2005  165   28.66000    11.47000  
2005  166   32.15000    16.13000  
2005  167   31.61000    16.80000  
2005  168   31.56000    16.09000  
2005  169   31.45000    15.45000  
2005  170   24.09000    10.31000  
2005  171   30.04000    15.00000  
2005  172   21.39000     9.65000  
2005  173   29.48000    10.51000  
2005  174   31.65000    13.52000  
2005  175   34.14000    18.42000  
2005  176   34.22000    21.63000  
2005  177   35.38000    17.58000  
2005  178   31.15000    20.74000  
2005  179   27.60000    13.08000  
2005  180   32.42000    17.28000  
2005  181   35.17000    20.50000  
2005  182   36.58000    23.36000  
2005  183   36.84000    23.38000  
2005  184   28.19000    13.41000  
2005  185   34.46000    14.22000  
2005  186   35.72000    17.02000  
2005  187   36.90000    18.10000  
2005  188   36.41000    20.90000  
2005  189   33.27000    21.59000  
2005  190   26.49000    14.69000  
2005  191   30.15000    17.34000  
2005  192   32.38000    18.75000  
2005  193   30.31000    14.60000  
2005  194   29.44000    14.44000  
2005  195   32.96000    15.44000  
2005  196   35.10000    19.95000  
2005  197   28.14000    14.52000  
2005  198   32.94000    16.26000  
2005  199   32.70000    15.97000  
2005  200   33.98000    18.36000  
2005  201   35.03000    23.75000  
2005  202   33.27000    17.83000  
2005  203   35.89000    20.66000  
2005  204   36.13000    24.22000  
2005  205   34.11000    22.65000  
2005  206   34.45000    21.38000  
2005  207   34.12000    22.35000  
2005  208   28.24000    18.71000  
2005  209   31.68000    20.76000  
2005  210   25.30000    16.27000  
2005  211   22.74000    16.25000  
2005  212   29.13000    16.63000  
2005  213   33.36000    16.18000  
2005  214   34.90000    17.26000  
2005  215   36.46000    19.58000  
2005  216   37.95000    17.73000  
2005  217   37.68000    21.66000  
2005  218   31.28000    18.49000  
2005  219   19.23000    13.92000  
2005  220   27.05000    12.32000  
2005  221   27.78000    15.16000  
2005  222   29.84000    17.70000  
2005  223   30.50000    12.65000  
2005  224   31.10000    16.15000  
2005  225   31.71000    15.46000  
2005  226   31.75000    17.84000  
2005  227   27.53000    13.60000  
2005  228   31.27000    15.23000  
2005  229   33.27000    15.72000  
2005  230   34.49000    17.38000  
2005  231   29.44000    14.70000  
2005  232   23.38000    10.72000  
2005  233   28.58000     9.98000  
2005  234   30.33000    11.77000  
2005  235   30.29000    12.33000  
2005  236   32.10000    13.61000  
2005  237   29.27000    13.56000  
2005  238   29.93000    13.47000  
2005  239   31.98000    14.20000  
2005  240   20.14000     9.18000  
2005  241   23.97000     6.78000  
2005  242   26.61000     8.76000  
2005  243   28.85000    10.98000  
2005  244   25.62000    10.97000  
2005  245   29.40000    12.14000  
2005  246   29.05000    10.29000  
2005  247   28.63000    10.45000  
2005  248   28.11000    12.42000  
2005  249   26.71000    15.39000  
2005  250   24.95000     7.94000  
2005  251   22.86000     8.51000  
2005  252   24.48000     6.22000  
2005  253   27.03000     6.67000  
2005  254   29.51000     9.21000  
2005  255   29.86000     9.23000  
2005  256   30.55000     9.68000  
2005  257   28.82000    10.02000  
2005  258   28.98000     8.98000  
2005  259   29.99000     9.83000  
2005  260   29.04000    10.63000  
2005  261   31.06000    11.28000  
2005  262   29.38000    17.52000  
2005  263   26.59000    11.62000  
2005  264   18.41000    11.90000  
2005  265   19.87000    11.00000  
2005  266   17.02000    10.95000  
2005  267   16.72000     8.30000  
2005  268   15.23000     9.07000  
2005  269   13.85000     5.26000  
2005  270   20.59000     5.32000  
2005  271   26.57000     6.91000  
2005  272   26.00000     6.64000  
2005  273   29.39000     7.87000  
2005  274   29.82000     8.17000  
2005  275   28.26000    10.84000  
2005  276   16.68000     8.15000  
2005  277   21.08000     7.12000  
2005  278   22.48000     6.81000  
2005  279   20.51000     5.10000  
2005  280   19.41000     3.43000  
2005  281   21.24000     3.92000  
2005  282   16.47000     4.99000  
2005  283   18.44000     0.99000  
2005  284   20.34000     0.48000  
2005  285   22.91000     3.06000  
2005  286   20.45000     3.90000  
2005  287   23.36000     4.52000  
2005  288   20.52000     4.01000  
2005  289   20.42000     4.20000  
2005  290   19.73000    -0.03000  
2005  291   20.66000     0.73000  
2005  292   23.01000     0.81000  
2005  293   22.80000     0.62000  
2005  294   10.71000    -2.57000  
2005  295   10.96000    -4.89000  
2005  296   10.79000    -6.28000  
2005  297   15.15000    -7.58000  
2005  298   14.44000    -5.13000  
2005  299   14.43000    -4.49000  
2005  300   11.92000    -4.75000  
2005  301   14.07000    -3.83000  
2005  302   15.36000    -5.33000  
2005  303   14.57000    -4.62000  
2005  304   15.62000    -4.15000  
2005  305   14.81000    -2.31000  
2005  306   16.94000    -4.32000  
2005  307   14.93000    -4.51000  
2005  308   12.79000    -4.09000  
2005  309   12.53000    -2.98000  
2005  310   14.99000    -3.08000  
2005  311   12.97000    -4.20000  
2005  312   14.04000    -1.53000  
2005  313   14.17000    -2.48000  
2005  314   10.80000    -1.73000  
2005  315   10.14000    -2.07000  
2005  316    4.21000    -7.15000  
2005  317    6.64000    -8.31000  
2005  318    6.62000    -8.36000  
2005  319    7.00000    -9.42000  
2005  320    3.83000    -6.32000  
2005  321    2.78000   -10.88000  
2005  322    2.83000   -11.57000  
2005  323    6.40000   -12.60000  
2005  324    5.32000   -13.14000  
2005  325    6.32000   -10.66000  
2005  326    5.46000    -8.43000  
2005  327    6.90000   -12.51000  
2005  328    6.07000   -12.67000  
2005  329    4.11000    -9.71000  
2005  330    4.97000   -10.62000  
2005  331    5.25000   -10.27000  
2005  332    8.41000    -8.66000  
2005  333    8.48000    -9.81000  
2005  334    4.73000    -6.91000  
2005  335    7.45000    -7.95000  
2005  336    3.75000    -9.15000  
2005  337   -6.14000   -22.17000  
2005  338   -5.34000   -22.40000  
2005  339   -5.70000   -21.63000  
2005  340   -0.36000    -8.41000  
2005  341    3.05000    -4.02000  
2005  342    7.56000    -5.05000  
2005  343    7.85000    -9.42000  
2005  344    5.03000   -11.86000  
2005  345    4.98000   -12.65000  
2005  346    3.09000    -8.97000  
2005  347    0.24000   -12.49000  
2005  348    3.42000   -12.42000  
2005  349    4.47000   -11.90000  
2005  350    1.67000   -10.67000  
2005  351    2.64000   -13.23000  
2005  352    4.70000   -11.94000  
2005  353    2.09000    -8.82000  
2005  354    0.11000   -15.79000  
2005  355   -9.69000   -16.43000  
2005  356   -5.60000   -15.73000  
2005  357   -0.50000   -16.23000  
2005  358   -1.69000   -16.50000  
2005  359   -4.53000   -16.20000  
2005  360   -2.30000    -9.50000  
2005  361   -8.34000   -22.55000  
2005  362  -10.61000   -22.86000  
2005  363  -10.53000   -22.94000  
2005  364  -10.42000   -22.72000  
2005  365   -5.94000   -22.24000  
2006    1   -4.91000   -20.78000  
2006    2   -2.81000   -19.13000  
2006    3   -2.54000   -19.75000  
2006    4   -0.63000   -19.53000  
2006    5   -0.48000   -18.91000  
2006    6   -1.28000   -17.05000  
2006    7   -3.37000   -16.93000  
2006    8   -1.36000   -14.27000  
2006    9   -0.29000   -11.72000  
2006   10   -3.27000   -13.24000  
2006   11   -4.46000   -12.87000  
2006   12   -6.13000   -16.26000  
2006   13   -4.47000   -18.32000  
2006   14   -3.53000   -18.02000  
2006   15   -3.97000   -19.81000  
2006   16   -2.07000   -16.05000  
2006   17   -4.32000   -16.73000  
2006   18   -5.71000   -17.46000  
2006   19   -8.68000   -19.60000  
2006   20  -12.63000   -26.71000  
2006   21  -13.39000   -30.04000  
2006   22  -15.78000   -31.10000  
2006   23  -18.41000   -31.78000  
2006   24  -20.40000   -31.19000  
2006   25  -17.08000   -28.23000  
2006   26  -17.58000   -29.20000  
2006   27  -16.12000   -25.68000  
2006   28  -13.77000   -22.93000  
2006   29  -14.44000   -29.93000  
2006   30  -17.07000   -30.93000  
2006   31  -16.67000   -31.00000  
2006   32  -16.44000   -30.86000  
2006   33  -12.08000   -26.43000  
2006   34   -9.81000   -25.83000  
2006   35   -7.66000   -26.28000  
2006   36   -8.53000   -28.39000  
2006   37   -9.52000   -26.81000  
2006   38   -9.31000   -28.29000  
2006   39   -9.30000   -26.31000  
2006   40   -4.83000   -24.75000  
2006   41   -6.93000   -22.83000  
2006   42   -7.40000   -23.17000  
2006   43   -3.89000   -19.78000  
2006   44   -3.57000   -22.18000  
2006   45   -4.43000   -22.70000  
2006   46   -4.16000   -19.31000  
2006   47   -4.28000   -20.57000  
2006   48    0.77000   -17.14000  
2006   49    3.76000   -16.53000  
2006   50    5.74000   -11.74000  
2006   51    7.07000    -9.47000  
2006   52   11.70000    -8.92000  
2006   53    9.47000    -4.11000  
2006   54    4.66000    -3.39000  
2006   55    3.41000   -11.23000  
2006   56    1.13000   -13.12000  
2006   57    4.23000   -14.09000  
2006   58    7.05000   -10.15000  
2006   59   10.41000    -7.35000  
2006   60    9.12000    -9.40000  
2006   61   11.63000    -9.67000  
2006   62   10.67000    -7.83000  
2006   63   12.91000    -6.80000  
2006   64   11.30000    -0.36000  
2006   65    9.63000    -3.37000  
2006   66   12.94000    -4.22000  
2006   67   14.39000    -4.70000  
2006   68   16.87000    -4.07000  
2006   69   16.16000    -2.44000  
2006   70   16.14000    -0.77000  
2006   71    7.87000    -4.35000  
2006   72   18.89000    -5.03000  
2006   73   12.07000    -3.81000  
2006   74   17.63000    -4.52000  
2006   75   21.67000    -2.73000  
2006   76   21.55000     2.26000  
2006   77   14.81000    -0.19000  
2006   78   13.24000    -0.65000  
2006   79   11.77000    -5.69000  
2006   80   14.52000    -6.82000  
2006   81   13.22000    -5.71000  
2006   82   17.93000    -5.70000  
2006   83   19.27000    -3.19000  
2006   84   20.94000    -0.13000  
2006   85   16.17000     1.98000  
2006   86    8.26000    -1.47000  
2006   87   12.05000    -1.62000  
2006   88   12.88000    -0.18000  
2006   89   10.93000    -1.32000  
2006   90    8.30000    -6.23000  
2006   91   12.37000    -6.85000  
2006   92   15.37000    -4.77000  
2006   93   16.63000    -2.78000  
2006   94   18.38000    -1.18000  
2006   95   21.73000     2.81000  
2006   96   23.97000     0.98000  
2006   97   19.46000     5.34000  
2006   98   22.01000     6.05000  
2006   99   16.96000     2.78000  
2006  100   14.74000     2.81000  
2006  101   16.35000     1.12000  
2006  102   16.89000    -0.36000  
2006  103   19.52000     1.72000  
2006  104   21.80000     1.70000  
2006  105   24.75000     3.43000  
2006  106   26.56000     8.21000  
2006  107   27.76000     8.64000  
2006  108   24.26000     4.85000  
2006  109   14.85000     0.73000  
2006  110    7.33000     0.93000  
2006  111   11.20000    -0.49000  
2006  112   13.29000    -3.01000  
2006  113   20.56000    -1.85000  
2006  114   24.20000    -0.58000  
2006  115   25.94000     1.73000  
2006  116   24.22000     5.22000  
2006  117   26.90000     6.82000  
2006  118   27.49000     9.91000  
2006  119   20.90000    10.27000  
2006  120   28.04000    11.07000  
2006  121   20.58000     7.01000  
2006  122   16.81000     1.57000  
2006  123   23.36000     5.43000  
2006  124   24.83000     8.07000  
2006  125   30.37000    11.49000  
2006  126   22.34000    13.64000  
2006  127   23.20000    10.76000  
2006  128   18.93000     2.70000  
2006  129   21.90000     4.91000  
2006  130   26.10000     7.74000  
2006  131   25.27000     9.48000  
2006  132   26.26000     7.57000  
2006  133   29.35000    10.63000  
2006  134   31.80000    13.24000  
2006  135   32.59000    16.98000  
2006  136   31.36000    16.73000  
2006  137   27.17000    13.36000  
2006  138   26.30000     9.75000  
2006  139   29.58000    13.59000  
2006  140   27.50000    16.14000  
2006  141   26.72000    10.19000  
2006  142   28.60000     9.27000  
2006  143   31.47000    13.33000  
2006  144   32.60000    14.39000  
2006  145   34.29000    17.10000  
2006  146   25.77000     9.81000  
2006  147   29.28000    14.00000  
2006  148   28.59000    12.66000  
2006  149   26.66000     8.98000  
2006  150   29.58000    11.35000  
2006  151   31.92000    17.03000  
2006  152   32.27000    12.39000  
2006  153   31.80000    14.39000  
2006  154   34.65000    17.95000  
2006  155   34.02000    18.31000  
2006  156   26.41000    12.18000  
2006  157   28.28000    15.62000  
2006  158   32.19000    15.60000  
2006  159   34.77000    15.58000  
2006  160   36.19000    16.82000  
2006  161   35.66000    17.97000  
2006  162   37.44000    18.79000  
2006  163   27.36000    15.69000  
2006  164   30.39000    13.36000  
2006  165   28.66000    11.47000  
2006  166   32.15000    16.13000  
2006  167   31.61000    16.80000  
2006  168   31.56000    16.09000  
2006  169   31.45000    15.45000  
2006  170   24.09000    10.31000  
2006  171   30.04000    15.00000  
2006  172   21.39000     9.65000  
2006  173   29.48000    10.51000  
2006  174   31.65000    13.52000  
2006  175   34.14000    18.42000  
2006  176   34.22000    21.63000  
2006  177   35.38000    17.58000  
2006  178   31.15000    20.74000  
2006  179   27.60000    13.08000  
2006  180   32.42000    17.28000  
2006  181   35.17000    20.50000  
2006  182   36.58000    23.36000  
2006  183   36.84000    23.38000  
2006  184   28.19000    13.41000  
2006  185   34.46000    14.22000  
2006  186   35.72000    17.02000  
2006  187   36.90000    18.10000  
2006  188   36.41000    20.90000  
2006  189   33.27000    21.59000  
2006  190   26.49000    14.69000  
2006  191   30.15000    17.34000  
2006  192   32.38000    18.75000  
2006  193   30.31000    14.60000  
2006  194   29.44000    14.44000  
2006  195   32.96000    15.44000  
2006  196   35.10000    19.95000  
2006  197   28.14000    14.52000  
2006  198   32.94000    16.26000  
2006  199   32.70000    15.97000  
2006  200   33.98000    18.36000  
2006  201   35.03000    23.75000  
2006  202   33.27000    17.83000  
2006  203   35.89000    20.66000  
2006  204   36.13000    24.22000  
2006  205   34.11000    22.65000  
2006  206   34.45000    21.38000  
2006  207   34.12000    22.35000  
2006  208   28.24000    18.71000  
2006  209   31.68000    20.76000  
2006  210   25.30000    16.27000  
2006  211   22.74000    16.25000  
2006  212   29.13000    16.63000  
2006  213   33.36000    16.18000  
2006  214   34.90000    17.26000  
2006  215   36.46000    19.58000  
2006  216   37.95000    17.73000  
2006  217   37.68000    21.66000  
2006  218   31.28000    18.49000  
2006  219   19.23000    13.92000  
2006  220   27.05000    12.32000  
2006  221   27.78000    15.16000  
2006  222   29.84000    17.70000  
2006  223   30.50000    12.65000  
2006  224   31.10000    16.15000  
2006  225   31.71000    15.46000  
2006  226   31.75000    17.84000  
2006  227   27.53000    13.60000  
2006  228   31.27000    15.23000  
2006  229   33.27000    15.72000  
2006  230   34.49000    17.38000  
2006  231   29.44000    14.70000  
2006  232   23.38000    10.72000  
2006  233   28.58000     9.98000  
2006  234   30.33000    11.77000  
2006  235   30.29000    12.33000  
2006  236   32.10000    13.61000  
2006  237   29.27000    13.56000  
2006  238   29.93000    13.47000  
2006  239   31.98000    14.20000  
2006  240   20.14000     9.18000  
2006  241   23.97000     6.78000  
2006  242   26.61000     8.76000  
2006  243   28.85000    10.98000  
2006  244   25.62000    10.97000  
2006  245   29.40000    12.14000  
2006  246   29.05000    10.29000  
2006  247   28.63000    10.45000  
2006  248   28.11000    12.42000  
2006  249   26.71000    15.39000  
2006  250   24.95000     7.94000  
2006  251   22.86000     8.51000  
2006  252   24.48000     6.22000  
2006  253   27.03000     6.67000  
2006  254   29.51000     9.21000  
2006  255   29.86000     9.23000  
2006  256   30.55000     9.68000  
2006  257   28.82000    10.02000  
2006  258   28.98000     8.98000  
2006  259   29.99000     9.83000  
2006  260   29.04000    10.63000  
2006  261   31.06000    11.28000  
2006  262   29.38000    17.52000  
2006  263   26.59000    11.62000  
2006  264   18.41000    11.90000  
2006  265   19.87000    11.00000  
2006  266   17.02000    10.95000  
2006  267   16.72000     8.30000  
2006  268   15.23000     9.07000  
2006  269   13.85000     5.26000  
2006  270   20.59000     5.32000  
2006  271   26.57000     6.91000  
2006  272   26.00000     6.64000  
2006  273   29.39000     7.87000  
2006  274   29.82000     8.17000  
2006  275   28.26000    10.84000  
2006  276   16.68000     8.15000  
2006  277   21.08000     7.12000  
2006  278   22.48000     6.81000  
2006  279   20.51000     5.10000  
2006  280   19.41000     3.43000  
2006  281   21.24000     3.92000  
2006  282   16.47000     4.99000  
2006  283   18.44000     0.99000  
2006  284   20.34000     0.48000  
2006  285   22.91000     3.06000  
2006  286   20.45000     3.90000  
2006  287   23.36000     4.52000  
2006  288   20.52000     4.01000  
2006  289   20.42000     4.20000  
2006  290   19.73000    -0.03000  
2006  291   20.66000     0.73000  
2006  292   23.01000     0.81000  
2006  293   22.80000     0.62000  
2006  294   10.71000    -2.57000  
2006  295   10.96000    -4.89000  
2006  296   10.79000    -6.28000  
2006  297   15.15000    -7.58000  
2006  298   14.44000    -5.13000  
2006  299   14.43000    -4.49000  
2006  300   11.92000    -4.75000  
2006  301   14.07000    -3.83000  
2006  302   15.36000    -5.33000  
2006  303   14.57000    -4.62000  
2006  304   15.62000    -4.15000  
2006  305   14.81000    -2.31000  
2006  306   16.94000    -4.32000  
2006  307   14.93000    -4.51000  
2006  308   12.79000    -4.09000  
2006  309   12.53000    -2.98000  
2006  310   14.99000    -3.08000  
2006  311   12.97000    -4.20000  
2006  312   14.04000    -1.53000  
2006  313   14.17000    -2.48000  
2006  314   10.80000    -1.73000  
2006  315   10.14000    -2.07000  
2006  316    4.21000    -7.15000  
2006  317    6.64000    -8.31000  
2006  318    6.62000    -8.36000  
2006  319    7.00000    -9.42000  
2006  320    3.83000    -6.32000  
2006  321    2.78000   -10.88000  
2006  322    2.83000   -11.57000  
2006  323    6.40000   -12.60000  
2006  324    5.32000   -13.14000  
2006  325    6.32000   -10.66000  
2006  326    5.46000    -8.43000  
2006  327    6.90000   -12.51000  
2006  328    6.07000   -12.67000  
2006  329    4.11000    -9.71000  
2006  330    4.97000   -10.62000  
2006  331    5.25000   -10.27000  
2006  332    8.41000    -8.66000  
2006  333    8.48000    -9.81000  
2006  334    4.73000    -6.91000  
2006  335    7.45000    -7.95000  
2006  336    3.75000    -9.15000  
2006  337   -6.14000   -22.17000  
2006  338   -5.34000   -22.40000  
2006  339   -5.70000   -21.63000  
2006  340   -0.36000    -8.41000  
2006  341    3.05000    -4.02000  
2006  342    7.56000    -5.05000  
2006  343    7.85000    -9.42000  
2006  344    5.03000   -11.86000  
2006  345    4.98000   -12.65000  
2006  346    3.09000    -8.97000  
2006  347    0.24000   -12.49000  
2006  348    3.42000   -12.42000  
2006  349    4.47000   -11.90000  
2006  350    1.67000   -10.67000  
2006  351    2.64000   -13.23000  
2006  352    4.70000   -11.94000  
2006  353    2.09000    -8.82000  
2006  354    0.11000   -15.79000  
2006  355   -9.69000   -16.43000  
2006  356   -5.60000   -15.73000  
2006  357   -0.50000   -16.23000  
2006  358   -1.69000   -16.50000  
2006  359   -4.53000   -16.20000  
2006  360   -2.30000    -9.50000  
2006  361   -8.34000   -22.55000  
2006  362  -10.61000   -22.86000  
2006  363  -10.53000   -22.94000  
2006  364  -10.42000   -22.72000  
2006  365   -5.94000   -22.24000  
2007    1   -4.91000   -20.78000  
2007    2   -2.81000   -19.13000  
2007    3   -2.54000   -19.75000  
2007    4   -0.63000   -19.53000  
2007    5   -0.48000   -18.91000  
2007    6   -1.28000   -17.05000  
2007    7   -3.37000   -16.93000  
2007    8   -1.36000   -14.27000  
2007    9   -0.29000   -11.72000  
2007   10   -3.27000   -13.24000  
2007   11   -4.46000   -12.87000  
2007   12   -6.13000   -16.26000  
2007   13   -4.47000   -18.32000  
2007   14   -3.53000   -18.02000  
2007   15   -3.97000   -19.81000  
2007   16   -2.07000   -16.05000  
2007   17   -4.32000   -16.73000  
2007   18   -5.71000   -17.46000  
2007   19   -8.68000   -19.60000  
2007   20  -12.63000   -26.71000  
2007   21  -13.39000   -30.04000  
2007   22  -15.78000   -31.10000  
2007   23  -18.41000   -31.78000  
2007   24  -20.40000   -31.19000  
2007   25  -17.08000   -28.23000  
2007   26  -17.58000   -29.20000  
2007   27  -16.12000   -25.68000  
2007   28  -13.77000   -22.93000  
2007   29  -14.44000   -29.93000  
2007   30  -17.07000   -30.93000  
2007   31  -16.67000   -31.00000  
2007   32  -16.44000   -30.86000  
2007   33  -12.08000   -26.43000  
2007   34   -9.81000   -25.83000  
2007   35   -7.66000   -26.28000  
2007   36   -8.53000   -28.39000  
2007   37   -9.52000   -26.81000  
2007   38   -9.31000   -28.29000  
2007   39   -9.30000   -26.31000  
2007   40   -4.83000   -24.75000  
2007   41   -6.93000   -22.83000  
2007   42   -7.40000   -23.17000  
2007   43   -3.89000   -19.78000  
2007   44   -3.57000   -22.18000  
2007   45   -4.43000   -22.70000  
2007   46   -4.16000   -19.31000  
2007   47   -4.28000   -20.57000  
2007   48    0.77000   -17.14000  
2007   49    3.76000   -16.53000  
2007   50    5.74000   -11.74000  
2007   51    7.07000    -9.47000  
2007   52   11.70000    -8.92000  
2007   53    9.47000    -4.11000  
2007   54    4.66000    -3.39000  
2007   55    3.41000   -11.23000  
2007   56    1.13000   -13.12000  
2007   57    4.23000   -14.09000  
2007   58    7.05000   -10.15000  
2007   59   10.41000    -7.35000  
2007   60    9.12000    -9.40000  
2007   61   11.63000    -9.67000  
2007   62   10.67000    -7.83000  
2007   63   12.91000    -6.80000  
2007   64   11.30000    -0.36000  
2007   65    9.63000    -3.37000  
2007   66   12.94000    -4.22000  
2007   67   14.39000    -4.70000  
2007   68   16.87000    -4.07000  
2007   69   16.16000    -2.44000  
2007   70   16.14000    -0.77000  
2007   71    7.87000    -4.35000  
2007   72   18.89000    -5.03000  
2007   73   12.07000    -3.81000  
2007   74   17.63000    -4.52000  
2007   75   21.67000    -2.73000  
2007   76   21.55000     2.26000  
2007   77   14.81000    -0.19000  
2007   78   13.24000    -0.65000  
2007   79   11.77000    -5.69000  
2007   80   14.52000    -6.82000  
2007   81   13.22000    -5.71000  
2007   82   17.93000    -5.70000  
2007   83   19.27000    -3.19000  
2007   84   20.94000    -0.13000  
2007   85   16.17000     1.98000  
2007   86    8.26000    -1.47000  
2007   87   12.05000    -1.62000  
2007   88   12.88000    -0.18000  
2007   89   10.93000    -1.32000  
2007   90    8.30000    -6.23000  
2007   91   12.37000    -6.85000  
2007   92   15.37000    -4.77000  
2007   93   16.63000    -2.78000  
2007   94   18.38000    -1.18000  
2007   95   21.73000     2.81000  
2007   96   23.97000     0.98000  
2007   97   19.46000     5.34000  
2007   98   22.01000     6.05000  