163160tmp.tem: Temperature data - file written by SWAT+ editor 2025-11-04 13:23:50.509104
nbyr     tstep       lat       lon      elev
  14         0    40.531    99.781  1164.000
2005    1   -5.45000   -20.38000  
2005    2   -3.83000   -18.48000  
2005    3   -0.94000   -18.04000  
2005    4   -1.37000   -18.59000  
2005    5    0.69000   -18.44000  
2005    6    0.09000   -14.94000  
2005    7    1.56000   -15.67000  
2005    8   -1.13000   -12.86000  
2005    9   -1.70000   -12.37000  
2005   10   -3.09000   -12.65000  
2005   11   -3.41000   -14.77000  
2005   12   -6.32000   -17.67000  
2005   13   -4.28000   -19.13000  
2005   14   -3.02000   -17.79000  
2005   15   -4.82000   -18.12000  
2005   16   -1.96000   -16.84000  
2005   17   -4.54000   -16.77000  
2005   18   -5.14000   -16.40000  
2005   19   -9.22000   -19.81000  
2005   20   -9.84000   -25.47000  
2005   21  -14.00000   -32.75000  
2005   22  -16.78000   -31.62000  
2005   23  -20.29000   -31.84000  
2005   24  -20.34000   -32.51000  
2005   25  -16.10000   -29.05000  
2005   26  -17.32000   -29.91000  
2005   27  -16.20000   -26.77000  
2005   28  -15.48000   -25.74000  
2005   29  -14.11000   -29.41000  
2005   30  -16.64000   -29.69000  
2005   31  -16.92000   -29.46000  
2005   32  -14.71000   -30.43000  
2005   33  -11.47000   -26.30000  
2005   34   -8.51000   -28.75000  
2005   35   -8.27000   -28.51000  
2005   36  -10.88000   -28.62000  
2005   37  -11.78000   -28.63000  
2005   38  -11.34000   -29.77000  
2005   39  -11.42000   -30.07000  
2005   40   -7.13000   -24.22000  
2005   41   -7.43000   -25.10000  
2005   42   -8.94000   -25.01000  
2005   43   -5.83000   -23.87000  
2005   44   -4.43000   -22.41000  
2005   45   -4.95000   -23.19000  
2005   46   -6.69000   -19.98000  
2005   47   -6.63000   -21.91000  
2005   48   -3.67000   -21.38000  
2005   49    0.12000   -16.45000  
2005   50    3.73000   -13.51000  
2005   51    8.58000    -9.91000  
2005   52    8.99000    -9.74000  
2005   53   10.45000    -9.62000  
2005   54    3.97000    -3.89000  
2005   55    4.04000    -9.08000  
2005   56    1.15000   -14.24000  
2005   57    4.44000   -14.80000  
2005   58    8.89000    -8.11000  
2005   59   11.60000    -6.65000  
2005   60    8.50000    -9.16000  
2005   61   11.96000    -9.28000  
2005   62   11.80000    -8.45000  
2005   63   13.81000    -6.81000  
2005   64   12.53000    -1.41000  
2005   65    7.78000    -2.95000  
2005   66   12.91000    -3.90000  
2005   67   14.46000    -3.33000  
2005   68   17.74000    -2.65000  
2005   69   17.13000    -1.02000  
2005   70   15.41000    -0.80000  
2005   71    7.54000    -4.85000  
2005   72   18.50000    -5.15000  
2005   73   12.40000    -4.98000  
2005   74   17.59000    -5.19000  
2005   75   21.44000     3.49000  
2005   76   21.57000     2.35000  
2005   77   15.93000    -0.24000  
2005   78   13.17000    -0.36000  
2005   79   12.16000    -2.40000  
2005   80   13.74000    -4.62000  
2005   81   12.95000    -6.54000  
2005   82   18.16000    -5.61000  
2005   83   18.33000    -1.89000  
2005   84   21.37000     2.17000  
2005   85   15.82000     1.58000  
2005   86    8.30000     0.52000  
2005   87   12.77000     0.69000  
2005   88   13.12000     0.80000  
2005   89   11.27000    -0.16000  
2005   90    8.44000    -3.41000  
2005   91   13.29000    -5.56000  
2005   92   15.32000    -4.24000  
2005   93   17.81000    -1.49000  
2005   94   19.44000    -0.32000  
2005   95   21.40000     1.80000  
2005   96   24.41000     2.96000  
2005   97   19.36000     5.70000  
2005   98   22.46000     6.67000  
2005   99   16.77000     3.56000  
2005  100   14.97000     4.41000  
2005  101   16.66000     2.36000  
2005  102   17.93000    -0.37000  
2005  103   19.74000     1.55000  
2005  104   21.91000     3.89000  
2005  105   25.34000     3.99000  
2005  106   27.42000     7.21000  
2005  107   27.62000    10.25000  
2005  108   23.42000     4.11000  
2005  109   15.42000     1.17000  
2005  110    8.26000     1.44000  
2005  111   11.27000     1.30000  
2005  112   13.46000    -3.08000  
2005  113   21.17000     0.12000  
2005  114   24.27000     2.71000  
2005  115   26.57000     6.95000  
2005  116   24.77000     8.98000  
2005  117   28.19000    11.24000  
2005  118   28.86000    12.17000  
2005  119   20.26000     7.12000  
2005  120   27.32000    10.02000  
2005  121   21.26000     5.97000  
2005  122   18.31000     1.90000  
2005  123   22.17000     5.68000  
2005  124   24.58000     8.52000  
2005  125   30.75000    11.67000  
2005  126   22.91000    11.31000  
2005  127   24.14000    13.25000  
2005  128   19.18000     6.51000  
2005  129   22.11000     5.28000  
2005  130   26.48000     7.54000  
2005  131   25.12000     6.47000  
2005  132   26.75000     8.61000  
2005  133   29.63000    13.23000  
2005  134   32.28000    14.74000  
2005  135   33.40000    17.57000  
2005  136   31.16000    16.11000  
2005  137   26.94000    11.67000  
2005  138   26.69000     9.20000  
2005  139   29.84000    12.41000  
2005  140   27.18000    15.45000  
2005  141   27.79000    13.83000  
2005  142   30.02000    13.41000  
2005  143   32.17000    14.11000  
2005  144   33.07000    16.70000  
2005  145   35.59000    17.81000  
2005  146   26.17000     9.82000  
2005  147   30.22000    12.83000  
2005  148   27.28000    11.33000  
2005  149   24.83000     7.75000  
2005  150   29.64000    13.75000  
2005  151   32.82000    16.88000  
2005  152   31.62000    15.24000  
2005  153   30.49000    14.31000  
2005  154   35.27000    18.21000  
2005  155   33.22000    21.39000  
2005  156   26.72000    12.10000  
2005  157   29.76000    15.21000  
2005  158   33.28000    16.74000  
2005  159   34.77000    17.38000  
2005  160   36.77000    17.49000  
2005  161   36.45000    21.32000  
2005  162   37.34000    19.91000  
2005  163   28.71000    14.82000  
2005  164   31.07000    13.58000  
2005  165   28.90000    14.16000  
2005  166   32.97000    17.04000  
2005  167   31.25000    14.88000  
2005  168   31.84000    14.69000  
2005  169   32.62000    17.25000  
2005  170   24.48000    12.88000  
2005  171   30.65000    17.36000  
2005  172   24.41000    10.92000  
2005  173   30.36000    12.70000  
2005  174   32.19000    14.52000  
2005  175   34.57000    19.63000  
2005  176   35.52000    23.94000  
2005  177   35.16000    19.61000  
2005  178   31.04000    18.71000  
2005  179   26.81000    16.40000  
2005  180   32.30000    17.59000  
2005  181   34.81000    18.68000  
2005  182   37.21000    22.62000  
2005  183   37.67000    23.93000  
2005  184   29.09000    16.99000  
2005  185   34.91000    17.33000  
2005  186   36.47000    19.50000  
2005  187   36.14000    19.52000  
2005  188   36.10000    22.18000  
2005  189   32.68000    22.66000  
2005  190   28.16000    16.72000  
2005  191   31.07000    18.49000  
2005  192   32.52000    16.21000  
2005  193   32.19000    15.68000  
2005  194   28.85000    14.38000  
2005  195   33.49000    16.68000  
2005  196   36.17000    20.60000  
2005  197   29.97000    15.90000  
2005  198   32.77000    18.99000  
2005  199   32.02000    17.89000  
2005  200   34.86000    20.15000  
2005  201   34.97000    20.79000  
2005  202   33.38000    20.55000  
2005  203   35.70000    20.80000  
2005  204   35.87000    24.25000  
2005  205   34.45000    22.32000  
2005  206   36.72000    23.88000  
2005  207   35.42000    23.64000  
2005  208   26.02000    17.62000  
2005  209   32.00000    20.30000  
2005  210   27.19000    16.82000  
2005  211   22.70000    17.75000  
2005  212   30.67000    18.17000  
2005  213   34.60000    18.53000  
2005  214   35.88000    19.06000  
2005  215   37.14000    20.95000  
2005  216   38.65000    20.40000  
2005  217   38.19000    22.18000  
2005  218   32.77000    21.19000  
2005  219   21.95000    14.14000  
2005  220   25.06000    11.64000  
2005  221   27.64000    12.80000  
2005  222   29.84000    16.15000  
2005  223   31.88000    14.91000  
2005  224   31.56000    13.80000  
2005  225   32.70000    15.62000  
2005  226   31.98000    18.55000  
2005  227   30.03000    14.20000  
2005  228   31.33000    16.12000  
2005  229   33.97000    16.94000  
2005  230   35.60000    19.63000  
2005  231   29.24000    15.69000  
2005  232   25.07000    13.52000  
2005  233   28.39000    13.04000  
2005  234   31.07000    15.47000  
2005  235   32.12000    15.33000  
2005  236   32.48000    14.09000  
2005  237   28.03000    12.06000  
2005  238   29.49000    11.91000  
2005  239   32.39000    14.23000  
2005  240   21.48000    11.14000  
2005  241   24.10000     7.84000  
2005  242   26.60000     8.22000  
2005  243   29.13000    10.06000  
2005  244   26.35000    12.02000  
2005  245   29.90000    14.39000  
2005  246   29.26000    11.73000  
2005  247   29.19000    11.50000  
2005  248   28.38000    13.72000  
2005  249   28.02000    13.94000  
2005  250   25.75000     9.22000  
2005  251   22.41000     9.96000  
2005  252   24.41000     6.45000  
2005  253   28.27000     8.31000  
2005  254   29.81000    10.65000  
2005  255   31.19000    12.39000  
2005  256   31.60000    13.23000  
2005  257   29.90000    12.36000  
2005  258   30.36000    10.78000  
2005  259   30.62000     9.98000  
2005  260   29.37000    11.02000  
2005  261   30.78000    12.35000  
2005  262   29.37000    15.37000  
2005  263   27.15000    12.99000  
2005  264   20.18000    13.21000  
2005  265   21.15000    10.03000  
2005  266   18.13000    10.33000  
2005  267   18.65000    10.26000  
2005  268   16.50000    10.21000  
2005  269   15.70000     5.04000  
2005  270   20.58000     5.42000  
2005  271   27.57000     6.90000  
2005  272   26.85000     7.22000  
2005  273   29.97000     8.00000  
2005  274   30.31000     9.02000  
2005  275   27.62000    10.09000  
2005  276   11.64000     6.66000  
2005  277   19.71000     6.95000  
2005  278   22.37000     6.55000  
2005  279   20.21000     6.62000  
2005  280   19.54000     2.59000  
2005  281   21.60000     2.59000  
2005  282   16.44000     2.52000  
2005  283   19.22000     1.17000  
2005  284   20.06000     0.97000  
2005  285   23.32000     5.15000  
2005  286   20.42000     4.85000  
2005  287   24.10000     3.71000  
2005  288   20.18000     4.81000  
2005  289   20.70000     3.75000  
2005  290   20.33000     2.67000  
2005  291   21.21000     1.97000  
2005  292   23.70000     1.00000  
2005  293   22.64000     2.59000  
2005  294    7.97000    -1.61000  
2005  295   10.46000    -6.30000  
2005  296   11.00000    -7.23000  
2005  297   15.25000    -4.76000  
2005  298   14.59000    -4.25000  
2005  299   14.91000    -5.40000  
2005  300   10.96000    -6.00000  
2005  301   14.83000    -4.42000  
2005  302   15.27000    -5.94000  
2005  303   13.84000    -5.75000  
2005  304   16.32000    -4.22000  
2005  305   14.29000    -3.21000  
2005  306   17.06000    -4.61000  
2005  307   14.13000    -4.92000  
2005  308   13.43000    -4.54000  
2005  309   13.77000    -1.86000  
2005  310   15.30000    -4.19000  
2005  311   12.43000    -4.53000  
2005  312   14.14000    -2.37000  
2005  313   14.29000    -2.82000  
2005  314   11.35000    -2.82000  
2005  315   10.16000    -2.24000  
2005  316    4.58000    -8.44000  
2005  317    7.28000    -8.83000  
2005  318    6.86000    -9.47000  
2005  319    7.39000    -8.53000  
2005  320    3.88000    -5.09000  
2005  321    2.72000   -11.22000  
2005  322    2.71000   -11.88000  
2005  323    6.43000   -12.78000  
2005  324    5.06000   -12.64000  
2005  325    6.39000   -11.86000  
2005  326    5.57000    -7.34000  
2005  327    6.74000   -12.82000  
2005  328    5.67000   -11.61000  
2005  329    4.10000   -10.76000  
2005  330    4.18000   -11.95000  
2005  331    7.23000   -11.86000  
2005  332    9.69000    -7.66000  
2005  333    9.36000    -7.64000  
2005  334    6.73000    -5.92000  
2005  335    8.81000    -5.95000  
2005  336    4.36000    -9.33000  
2005  337   -4.80000   -18.90000  
2005  338   -4.66000   -19.83000  
2005  339   -3.18000   -19.17000  
2005  340    3.15000    -9.74000  
2005  341    6.55000    -3.26000  
2005  342   12.23000    -3.10000  
2005  343   11.26000    -7.00000  
2005  344    4.91000    -9.87000  
2005  345    6.35000   -10.41000  
2005  346    2.51000   -10.94000  
2005  347   -0.05000   -12.47000  
2005  348    2.77000   -11.84000  
2005  349    5.93000    -8.77000  
2005  350    2.24000   -12.04000  
2005  351    2.59000   -12.78000  
2005  352    6.58000   -11.74000  
2005  353    2.46000   -10.25000  
2005  354   -2.53000   -16.71000  
2005  355   -7.70000   -16.27000  
2005  356   -6.80000   -15.72000  
2005  357   -0.01000   -14.88000  
2005  358   -1.13000   -14.03000  
2005  359   -1.46000   -15.22000  
2005  360   -0.78000   -11.37000  
2005  361   -9.45000   -18.52000  
2005  362   -6.05000   -23.15000  
2005  363   -9.47000   -23.40000  
2005  364  -10.16000   -23.31000  
2005  365   -9.08000   -21.35000  
2006    1   -5.45000   -20.38000  
2006    2   -3.83000   -18.48000  
2006    3   -0.94000   -18.04000  
2006    4   -1.37000   -18.59000  
2006    5    0.69000   -18.44000  
2006    6    0.09000   -14.94000  
2006    7    1.56000   -15.67000  
2006    8   -1.13000   -12.86000  
2006    9   -1.70000   -12.37000  
2006   10   -3.09000   -12.65000  
2006   11   -3.41000   -14.77000  
2006   12   -6.32000   -17.67000  
2006   13   -4.28000   -19.13000  
2006   14   -3.02000   -17.79000  
2006   15   -4.82000   -18.12000  
2006   16   -1.96000   -16.84000  
2006   17   -4.54000   -16.77000  
2006   18   -5.14000   -16.40000  
2006   19   -9.22000   -19.81000  
2006   20   -9.84000   -25.47000  
2006   21  -14.00000   -32.75000  
2006   22  -16.78000   -31.62000  
2006   23  -20.29000   -31.84000  
2006   24  -20.34000   -32.51000  
2006   25  -16.10000   -29.05000  
2006   26  -17.32000   -29.91000  
2006   27  -16.20000   -26.77000  
2006   28  -15.48000   -25.74000  
2006   29  -14.11000   -29.41000  
2006   30  -16.64000   -29.69000  
2006   31  -16.92000   -29.46000  
2006   32  -14.71000   -30.43000  
2006   33  -11.47000   -26.30000  
2006   34   -8.51000   -28.75000  
2006   35   -8.27000   -28.51000  
2006   36  -10.88000   -28.62000  
2006   37  -11.78000   -28.63000  
2006   38  -11.34000   -29.77000  
2006   39  -11.42000   -30.07000  
2006   40   -7.13000   -24.22000  
2006   41   -7.43000   -25.10000  
2006   42   -8.94000   -25.01000  
2006   43   -5.83000   -23.87000  
2006   44   -4.43000   -22.41000  
2006   45   -4.95000   -23.19000  
2006   46   -6.69000   -19.98000  
2006   47   -6.63000   -21.91000  
2006   48   -3.67000   -21.38000  
2006   49    0.12000   -16.45000  
2006   50    3.73000   -13.51000  
2006   51    8.58000    -9.91000  
2006   52    8.99000    -9.74000  
2006   53   10.45000    -9.62000  
2006   54    3.97000    -3.89000  
2006   55    4.04000    -9.08000  
2006   56    1.15000   -14.24000  
2006   57    4.44000   -14.80000  
2006   58    8.89000    -8.11000  
2006   59   11.60000    -6.65000  
2006   60    8.50000    -9.16000  
2006   61   11.96000    -9.28000  
2006   62   11.80000    -8.45000  
2006   63   13.81000    -6.81000  
2006   64   12.53000    -1.41000  
2006   65    7.78000    -2.95000  
2006   66   12.91000    -3.90000  
2006   67   14.46000    -3.33000  
2006   68   17.74000    -2.65000  
2006   69   17.13000    -1.02000  
2006   70   15.41000    -0.80000  
2006   71    7.54000    -4.85000  
2006   72   18.50000    -5.15000  
2006   73   12.40000    -4.98000  
2006   74   17.59000    -5.19000  
2006   75   21.44000     3.49000  
2006   76   21.57000     2.35000  
2006   77   15.93000    -0.24000  
2006   78   13.17000    -0.36000  
2006   79   12.16000    -2.40000  
2006   80   13.74000    -4.62000  
2006   81   12.95000    -6.54000  
2006   82   18.16000    -5.61000  
2006   83   18.33000    -1.89000  
2006   84   21.37000     2.17000  
2006   85   15.82000     1.58000  
2006   86    8.30000     0.52000  
2006   87   12.77000     0.69000  
2006   88   13.12000     0.80000  
2006   89   11.27000    -0.16000  
2006   90    8.44000    -3.41000  
2006   91   13.29000    -5.56000  
2006   92   15.32000    -4.24000  
2006   93   17.81000    -1.49000  
2006   94   19.44000    -0.32000  
2006   95   21.40000     1.80000  
2006   96   24.41000     2.96000  
2006   97   19.36000     5.70000  
2006   98   22.46000     6.67000  
2006   99   16.77000     3.56000  
2006  100   14.97000     4.41000  
2006  101   16.66000     2.36000  
2006  102   17.93000    -0.37000  
2006  103   19.74000     1.55000  
2006  104   21.91000     3.89000  
2006  105   25.34000     3.99000  
2006  106   27.42000     7.21000  
2006  107   27.62000    10.25000  
2006  108   23.42000     4.11000  
2006  109   15.42000     1.17000  
2006  110    8.26000     1.44000  
2006  111   11.27000     1.30000  
2006  112   13.46000    -3.08000  
2006  113   21.17000     0.12000  
2006  114   24.27000     2.71000  
2006  115   26.57000     6.95000  
2006  116   24.77000     8.98000  
2006  117   28.19000    11.24000  
2006  118   28.86000    12.17000  
2006  119   20.26000     7.12000  
2006  120   27.32000    10.02000  
2006  121   21.26000     5.97000  
2006  122   18.31000     1.90000  
2006  123   22.17000     5.68000  
2006  124   24.58000     8.52000  
2006  125   30.75000    11.67000  
2006  126   22.91000    11.31000  
2006  127   24.14000    13.25000  
2006  128   19.18000     6.51000  
2006  129   22.11000     5.28000  
2006  130   26.48000     7.54000  
2006  131   25.12000     6.47000  
2006  132   26.75000     8.61000  
2006  133   29.63000    13.23000  
2006  134   32.28000    14.74000  
2006  135   33.40000    17.57000  
2006  136   31.16000    16.11000  
2006  137   26.94000    11.67000  
2006  138   26.69000     9.20000  
2006  139   29.84000    12.41000  
2006  140   27.18000    15.45000  
2006  141   27.79000    13.83000  
2006  142   30.02000    13.41000  
2006  143   32.17000    14.11000  
2006  144   33.07000    16.70000  
2006  145   35.59000    17.81000  
2006  146   26.17000     9.82000  
2006  147   30.22000    12.83000  
2006  148   27.28000    11.33000  
2006  149   24.83000     7.75000  
2006  150   29.64000    13.75000  
2006  151   32.82000    16.88000  
2006  152   31.62000    15.24000  
2006  153   30.49000    14.31000  
2006  154   35.27000    18.21000  
2006  155   33.22000    21.39000  
2006  156   26.72000    12.10000  
2006  157   29.76000    15.21000  
2006  158   33.28000    16.74000  
2006  159   34.77000    17.38000  
2006  160   36.77000    17.49000  
2006  161   36.45000    21.32000  
2006  162   37.34000    19.91000  
2006  163   28.71000    14.82000  
2006  164   31.07000    13.58000  
2006  165   28.90000    14.16000  
2006  166   32.97000    17.04000  
2006  167   31.25000    14.88000  
2006  168   31.84000    14.69000  
2006  169   32.62000    17.25000  
2006  170   24.48000    12.88000  
2006  171   30.65000    17.36000  
2006  172   24.41000    10.92000  
2006  173   30.36000    12.70000  
2006  174   32.19000    14.52000  
2006  175   34.57000    19.63000  
2006  176   35.52000    23.94000  
2006  177   35.16000    19.61000  
2006  178   31.04000    18.71000  
2006  179   26.81000    16.40000  
2006  180   32.30000    17.59000  
2006  181   34.81000    18.68000  
2006  182   37.21000    22.62000  
2006  183   37.67000    23.93000  
2006  184   29.09000    16.99000  
2006  185   34.91000    17.33000  
2006  186   36.47000    19.50000  
2006  187   36.14000    19.52000  
2006  188   36.10000    22.18000  
2006  189   32.68000    22.66000  
2006  190   28.16000    16.72000  
2006  191   31.07000    18.49000  
2006  192   32.52000    16.21000  
2006  193   32.19000    15.68000  
2006  194   28.85000    14.38000  
2006  195   33.49000    16.68000  
2006  196   36.17000    20.60000  
2006  197   29.97000    15.90000  
2006  198   32.77000    18.99000  
2006  199   32.02000    17.89000  
2006  200   34.86000    20.15000  
2006  201   34.97000    20.79000  
2006  202   33.38000    20.55000  
2006  203   35.70000    20.80000  
2006  204   35.87000    24.25000  
2006  205   34.45000    22.32000  
2006  206   36.72000    23.88000  
2006  207   35.42000    23.64000  
2006  208   26.02000    17.62000  
2006  209   32.00000    20.30000  
2006  210   27.19000    16.82000  
2006  211   22.70000    17.75000  
2006  212   30.67000    18.17000  
2006  213   34.60000    18.53000  
2006  214   35.88000    19.06000  
2006  215   37.14000    20.95000  
2006  216   38.65000    20.40000  
2006  217   38.19000    22.18000  
2006  218   32.77000    21.19000  
2006  219   21.95000    14.14000  
2006  220   25.06000    11.64000  
2006  221   27.64000    12.80000  
2006  222   29.84000    16.15000  
2006  223   31.88000    14.91000  
2006  224   31.56000    13.80000  
2006  225   32.70000    15.62000  
2006  226   31.98000    18.55000  
2006  227   30.03000    14.20000  
2006  228   31.33000    16.12000  
2006  229   33.97000    16.94000  
2006  230   35.60000    19.63000  
2006  231   29.24000    15.69000  
2006  232   25.07000    13.52000  
2006  233   28.39000    13.04000  
2006  234   31.07000    15.47000  
2006  235   32.12000    15.33000  
2006  236   32.48000    14.09000  
2006  237   28.03000    12.06000  
2006  238   29.49000    11.91000  
2006  239   32.39000    14.23000  
2006  240   21.48000    11.14000  
2006  241   24.10000     7.84000  
2006  242   26.60000     8.22000  
2006  243   29.13000    10.06000  
2006  244   26.35000    12.02000  
2006  245   29.90000    14.39000  
2006  246   29.26000    11.73000  
2006  247   29.19000    11.50000  
2006  248   28.38000    13.72000  
2006  249   28.02000    13.94000  
2006  250   25.75000     9.22000  
2006  251   22.41000     9.96000  
2006  252   24.41000     6.45000  
2006  253   28.27000     8.31000  
2006  254   29.81000    10.65000  
2006  255   31.19000    12.39000  
2006  256   31.60000    13.23000  
2006  257   29.90000    12.36000  
2006  258   30.36000    10.78000  
2006  259   30.62000     9.98000  
2006  260   29.37000    11.02000  
2006  261   30.78000    12.35000  
2006  262   29.37000    15.37000  
2006  263   27.15000    12.99000  
2006  264   20.18000    13.21000  
2006  265   21.15000    10.03000  
2006  266   18.13000    10.33000  
2006  267   18.65000    10.26000  
2006  268   16.50000    10.21000  
2006  269   15.70000     5.04000  
2006  270   20.58000     5.42000  
2006  271   27.57000     6.90000  
2006  272   26.85000     7.22000  
2006  273   29.97000     8.00000  
2006  274   30.31000     9.02000  
2006  275   27.62000    10.09000  
2006  276   11.64000     6.66000  
2006  277   19.71000     6.95000  
2006  278   22.37000     6.55000  
2006  279   20.21000     6.62000  
2006  280   19.54000     2.59000  
2006  281   21.60000     2.59000  
2006  282   16.44000     2.52000  
2006  283   19.22000     1.17000  
2006  284   20.06000     0.97000  
2006  285   23.32000     5.15000  
2006  286   20.42000     4.85000  
2006  287   24.10000     3.71000  
2006  288   20.18000     4.81000  
2006  289   20.70000     3.75000  
2006  290   20.33000     2.67000  
2006  291   21.21000     1.97000  
2006  292   23.70000     1.00000  
2006  293   22.64000     2.59000  
2006  294    7.97000    -1.61000  
2006  295   10.46000    -6.30000  
2006  296   11.00000    -7.23000  
2006  297   15.25000    -4.76000  
2006  298   14.59000    -4.25000  
2006  299   14.91000    -5.40000  
2006  300   10.96000    -6.00000  
2006  301   14.83000    -4.42000  
2006  302   15.27000    -5.94000  
2006  303   13.84000    -5.75000  
2006  304   16.32000    -4.22000  
2006  305   14.29000    -3.21000  
2006  306   17.06000    -4.61000  
2006  307   14.13000    -4.92000  
2006  308   13.43000    -4.54000  
2006  309   13.77000    -1.86000  
2006  310   15.30000    -4.19000  
2006  311   12.43000    -4.53000  
2006  312   14.14000    -2.37000  
2006  313   14.29000    -2.82000  
2006  314   11.35000    -2.82000  
2006  315   10.16000    -2.24000  
2006  316    4.58000    -8.44000  
2006  317    7.28000    -8.83000  
2006  318    6.86000    -9.47000  
2006  319    7.39000    -8.53000  
2006  320    3.88000    -5.09000  
2006  321    2.72000   -11.22000  
2006  322    2.71000   -11.88000  
2006  323    6.43000   -12.78000  
2006  324    5.06000   -12.64000  
2006  325    6.39000   -11.86000  
2006  326    5.57000    -7.34000  
2006  327    6.74000   -12.82000  
2006  328    5.67000   -11.61000  
2006  329    4.10000   -10.76000  
2006  330    4.18000   -11.95000  
2006  331    7.23000   -11.86000  
2006  332    9.69000    -7.66000  
2006  333    9.36000    -7.64000  
2006  334    6.73000    -5.92000  
2006  335    8.81000    -5.95000  
2006  336    4.36000    -9.33000  
2006  337   -4.80000   -18.90000  
2006  338   -4.66000   -19.83000  
2006  339   -3.18000   -19.17000  
2006  340    3.15000    -9.74000  
2006  341    6.55000    -3.26000  
2006  342   12.23000    -3.10000  
2006  343   11.26000    -7.00000  
2006  344    4.91000    -9.87000  
2006  345    6.35000   -10.41000  
2006  346    2.51000   -10.94000  
2006  347   -0.05000   -12.47000  
2006  348    2.77000   -11.84000  
2006  349    5.93000    -8.77000  
2006  350    2.24000   -12.04000  
2006  351    2.59000   -12.78000  
2006  352    6.58000   -11.74000  
2006  353    2.46000   -10.25000  
2006  354   -2.53000   -16.71000  
2006  355   -7.70000   -16.27000  
2006  356   -6.80000   -15.72000  
2006  357   -0.01000   -14.88000  
2006  358   -1.13000   -14.03000  
2006  359   -1.46000   -15.22000  
2006  360   -0.78000   -11.37000  
2006  361   -9.45000   -18.52000  
2006  362   -6.05000   -23.15000  
2006  363   -9.47000   -23.40000  
2006  364  -10.16000   -23.31000  
2006  365   -9.08000   -21.35000  
2007    1   -5.45000   -20.38000  
2007    2   -3.83000   -18.48000  
2007    3   -0.94000   -18.04000  
2007    4   -1.37000   -18.59000  
2007    5    0.69000   -18.44000  
2007    6    0.09000   -14.94000  
2007    7    1.56000   -15.67000  
2007    8   -1.13000   -12.86000  
2007    9   -1.70000   -12.37000  
2007   10   -3.09000   -12.65000  
2007   11   -3.41000   -14.77000  
2007   12   -6.32000   -17.67000  
2007   13   -4.28000   -19.13000  
2007   14   -3.02000   -17.79000  
2007   15   -4.82000   -18.12000  
2007   16   -1.96000   -16.84000  
2007   17   -4.54000   -16.77000  
2007   18   -5.14000   -16.40000  
2007   19   -9.22000   -19.81000  
2007   20   -9.84000   -25.47000  
2007   21  -14.00000   -32.75000  
2007   22  -16.78000   -31.62000  
2007   23  -20.29000   -31.84000  
2007   24  -20.34000   -32.51000  
2007   25  -16.10000   -29.05000  
2007   26  -17.32000   -29.91000  
2007   27  -16.20000   -26.77000  
2007   28  -15.48000   -25.74000  
2007   29  -14.11000   -29.41000  
2007   30  -16.64000   -29.69000  
2007   31  -16.92000   -29.46000  
2007   32  -14.71000   -30.43000  
2007   33  -11.47000   -26.30000  
2007   34   -8.51000   -28.75000  
2007   35   -8.27000   -28.51000  
2007   36  -10.88000   -28.62000  
2007   37  -11.78000   -28.63000  
2007   38  -11.34000   -29.77000  
2007   39  -11.42000   -30.07000  
2007   40   -7.13000   -24.22000  
2007   41   -7.43000   -25.10000  
2007   42   -8.94000   -25.01000  
2007   43   -5.83000   -23.87000  
2007   44   -4.43000   -22.41000  
2007   45   -4.95000   -23.19000  
2007   46   -6.69000   -19.98000  
2007   47   -6.63000   -21.91000  
2007   48   -3.67000   -21.38000  
2007   49    0.12000   -16.45000  
2007   50    3.73000   -13.51000  
2007   51    8.58000    -9.91000  
2007   52    8.99000    -9.74000  
2007   53   10.45000    -9.62000  
2007   54    3.97000    -3.89000  
2007   55    4.04000    -9.08000  
2007   56    1.15000   -14.24000  
2007   57    4.44000   -14.80000  
2007   58    8.89000    -8.11000  
2007   59   11.60000    -6.65000  
2007   60    8.50000    -9.16000  
2007   61   11.96000    -9.28000  
2007   62   11.80000    -8.45000  
2007   63   13.81000    -6.81000  
2007   64   12.53000    -1.41000  
2007   65    7.78000    -2.95000  
2007   66   12.91000    -3.90000  
2007   67   14.46000    -3.33000  
2007   68   17.74000    -2.65000  
2007   69   17.13000    -1.02000  
2007   70   15.41000    -0.80000  
2007   71    7.54000    -4.85000  
2007   72   18.50000    -5.15000  
2007   73   12.40000    -4.98000  
2007   74   17.59000    -5.19000  
2007   75   21.44000     3.49000  
2007   76   21.57000     2.35000  
2007   77   15.93000    -0.24000  
2007   78   13.17000    -0.36000  
2007   79   12.16000    -2.40000  
2007   80   13.74000    -4.62000  
2007   81   12.95000    -6.54000  
2007   82   18.16000    -5.61000  
2007   83   18.33000    -1.89000  
2007   84   21.37000     2.17000  
2007   85   15.82000     1.58000  
2007   86    8.30000     0.52000  
2007   87   12.77000     0.69000  
2007   88   13.12000     0.80000  
2007   89   11.27000    -0.16000  
2007   90    8.44000    -3.41000  
2007   91   13.29000    -5.56000  
2007   92   15.32000    -4.24000  
2007   93   17.81000    -1.49000  
2007   94   19.44000    -0.32000  
2007   95   21.40000     1.80000  
2007   96   24.41000     2.96000  
2007   97   19.36000     5.70000  
2007   98   22.46000     6.67000  