163151tmp.tem: Temperature data - file written by SWAT+ editor 2025-11-04 13:23:50.482558
nbyr     tstep       lat       lon      elev
  14         0    40.531    97.531  1343.000
2005    1   -5.36000   -21.93000  
2005    2   -4.54000   -18.81000  
2005    3   -4.50000   -19.69000  
2005    4   -1.95000   -20.47000  
2005    5   -3.81000   -19.26000  
2005    6   -1.93000   -18.84000  
2005    7   -4.13000   -18.53000  
2005    8   -1.42000   -16.74000  
2005    9   -1.65000   -14.89000  
2005   10   -5.92000   -16.36000  
2005   11   -4.54000   -14.61000  
2005   12   -5.42000   -15.71000  
2005   13   -2.40000   -18.27000  
2005   14   -4.46000   -18.72000  
2005   15   -5.15000   -17.23000  
2005   16   -2.69000   -16.23000  
2005   17   -7.76000   -17.88000  
2005   18   -7.65000   -16.74000  
2005   19  -10.26000   -21.14000  
2005   20  -12.47000   -26.26000  
2005   21  -14.42000   -28.99000  
2005   22  -17.52000   -30.51000  
2005   23  -20.96000   -31.00000  
2005   24  -21.79000   -30.60000  
2005   25  -19.70000   -28.61000  
2005   26  -19.35000   -29.35000  
2005   27  -14.87000   -26.62000  
2005   28  -13.24000   -24.17000  
2005   29  -13.25000   -27.87000  
2005   30  -15.35000   -27.89000  
2005   31  -15.03000   -28.95000  
2005   32  -11.94000   -29.51000  
2005   33   -9.45000   -25.80000  
2005   34  -10.38000   -26.30000  
2005   35   -8.85000   -26.89000  
2005   36   -5.55000   -26.52000  
2005   37   -7.46000   -26.62000  
2005   38  -10.28000   -26.52000  
2005   39   -6.43000   -26.27000  
2005   40   -4.65000   -23.63000  
2005   41   -5.76000   -22.46000  
2005   42   -6.49000   -23.29000  
2005   43   -5.18000   -19.93000  
2005   44   -2.09000   -22.31000  
2005   45   -4.34000   -22.32000  
2005   46   -3.89000   -18.16000  
2005   47   -3.84000   -18.48000  
2005   48    0.12000   -15.10000  
2005   49    5.41000   -15.89000  
2005   50    5.65000   -12.16000  
2005   51    6.62000   -11.06000  
2005   52   11.79000    -8.71000  
2005   53    6.69000    -4.61000  
2005   54    3.81000    -5.03000  
2005   55    3.57000   -13.99000  
2005   56    2.13000   -15.49000  
2005   57    5.42000   -15.48000  
2005   58    6.01000    -8.89000  
2005   59   11.16000   -10.18000  
2005   60    9.23000   -10.16000  
2005   61   11.14000    -9.79000  
2005   62    9.88000    -8.01000  
2005   63   12.85000    -7.36000  
2005   64   10.78000    -3.55000  
2005   65   12.36000    -3.59000  
2005   66   13.42000    -6.33000  
2005   67   14.78000    -6.76000  
2005   68   16.13000    -0.99000  
2005   69   16.35000    -3.05000  
2005   70   16.28000    -4.17000  
2005   71    5.63000    -5.88000  
2005   72   17.31000    -4.96000  
2005   73   10.15000    -5.53000  
2005   74   17.77000    -5.81000  
2005   75   21.37000     1.76000  
2005   76   20.20000    -0.04000  
2005   77   13.63000    -0.07000  
2005   78   12.38000    -0.15000  
2005   79   10.63000    -5.95000  
2005   80   14.56000    -5.99000  
2005   81   13.65000    -6.72000  
2005   82   17.08000    -7.21000  
2005   83   18.46000    -1.07000  
2005   84   19.62000     0.47000  
2005   85   15.60000     0.13000  
2005   86    5.46000    -1.64000  
2005   87   10.73000    -0.44000  
2005   88   12.30000    -0.91000  
2005   89    8.42000    -3.74000  
2005   90    7.64000    -5.36000  
2005   91   11.25000    -8.44000  
2005   92   14.99000    -6.82000  
2005   93   15.72000    -4.12000  
2005   94   18.19000    -3.96000  
2005   95   20.95000    -0.38000  
2005   96   23.85000     1.95000  
2005   97   19.08000     2.64000  
2005   98   22.30000     2.80000  
2005   99   18.90000     3.18000  
2005  100   12.51000     1.47000  
2005  101   15.66000    -0.80000  
2005  102   16.02000    -2.17000  
2005  103   18.27000     0.90000  
2005  104   21.13000     0.69000  
2005  105   24.22000     1.66000  
2005  106   24.59000     4.22000  
2005  107   26.82000     7.02000  
2005  108   23.77000     1.10000  
2005  109   13.98000    -2.22000  
2005  110    6.63000    -0.88000  
2005  111   10.98000    -5.15000  
2005  112   12.61000    -4.88000  
2005  113   20.23000    -3.29000  
2005  114   23.32000     0.28000  
2005  115   24.92000     3.58000  
2005  116   23.19000     5.96000  
2005  117   25.85000     8.78000  
2005  118   26.68000     8.21000  
2005  119   19.77000     6.97000  
2005  120   28.61000     7.76000  
2005  121   19.45000     6.48000  
2005  122   15.83000    -0.46000  
2005  123   22.77000     1.13000  
2005  124   25.35000     6.29000  
2005  125   29.60000     8.83000  
2005  126   22.43000    11.43000  
2005  127   22.97000     7.27000  
2005  128   19.24000     2.61000  
2005  129   21.84000     2.02000  
2005  130   26.04000     6.79000  
2005  131   26.17000     5.83000  
2005  132   26.23000     7.40000  
2005  133   28.49000     9.07000  
2005  134   31.23000    13.57000  
2005  135   32.65000    14.17000  
2005  136   30.92000    15.30000  
2005  137   28.59000    10.40000  
2005  138   26.56000     6.60000  
2005  139   29.10000    10.46000  
2005  140   27.39000    13.45000  
2005  141   26.28000    13.28000  
2005  142   27.78000    10.66000  
2005  143   30.41000    11.68000  
2005  144   32.36000    13.36000  
2005  145   32.61000    14.36000  
2005  146   25.28000     7.85000  
2005  147   29.29000    10.09000  
2005  148   27.06000    10.94000  
2005  149   27.82000     7.65000  
2005  150   29.35000    11.09000  
2005  151   31.83000    17.25000  
2005  152   32.08000    12.88000  
2005  153   34.08000    12.59000  
2005  154   34.92000    17.39000  
2005  155   32.69000    17.58000  
2005  156   26.49000    11.54000  
2005  157   27.76000    15.58000  
2005  158   31.18000    14.65000  
2005  159   33.65000    13.50000  
2005  160   35.59000    18.83000  
2005  161   34.96000    18.56000  
2005  162   35.75000    17.03000  
2005  163   27.23000    12.01000  
2005  164   27.91000    10.19000  
2005  165   28.02000    11.22000  
2005  166   31.26000    13.31000  
2005  167   31.02000    14.73000  
2005  168   31.31000    12.45000  
2005  169   29.38000    13.75000  
2005  170   23.11000    10.31000  
2005  171   29.18000    15.62000  
2005  172   25.62000    12.84000  
2005  173   27.88000     9.25000  
2005  174   30.50000    13.36000  
2005  175   32.85000    18.28000  
2005  176   32.87000    21.12000  
2005  177   33.83000    17.78000  
2005  178   30.45000    18.57000  
2005  179   26.18000    13.40000  
2005  180   31.66000    15.17000  
2005  181   34.13000    15.19000  
2005  182   35.43000    19.51000  
2005  183   32.36000    20.71000  
2005  184   28.73000    13.58000  
2005  185   33.58000    15.18000  
2005  186   34.50000    12.35000  
2005  187   35.98000    14.62000  
2005  188   35.14000    19.21000  
2005  189   33.30000    18.48000  
2005  190   19.83000    10.93000  
2005  191   29.26000    13.95000  
2005  192   31.38000    14.76000  
2005  193   26.82000    12.01000  
2005  194   30.94000    12.37000  
2005  195   32.93000    13.18000  
2005  196   34.51000    15.98000  
2005  197   27.03000    13.49000  
2005  198   31.21000    13.72000  
2005  199   32.18000    13.41000  
2005  200   33.43000    17.04000  
2005  201   33.08000    19.86000  
2005  202   32.55000    17.06000  
2005  203   35.05000    21.23000  
2005  204   33.42000    19.56000  
2005  205   32.97000    20.11000  
2005  206   29.72000    18.74000  
2005  207   34.03000    20.22000  
2005  208   27.36000    14.52000  
2005  209   30.85000    17.35000  
2005  210   20.69000    14.39000  
2005  211   23.03000    15.17000  
2005  212   29.34000    14.84000  
2005  213   32.63000    13.30000  
2005  214   34.31000    14.92000  
2005  215   36.06000    17.19000  
2005  216   37.58000    16.03000  
2005  217   36.72000    18.86000  
2005  218   29.45000    14.98000  
2005  219   21.82000     8.63000  
2005  220   28.67000    10.80000  
2005  221   28.67000    12.43000  
2005  222   30.16000    11.58000  
2005  223   29.90000    10.84000  
2005  224   30.26000    11.96000  
2005  225   30.90000    13.17000  
2005  226   31.18000    15.01000  
2005  227   29.04000    11.32000  
2005  228   30.61000    12.97000  
2005  229   32.87000    14.23000  
2005  230   34.13000    18.13000  
2005  231   25.51000    11.74000  
2005  232   21.97000     8.93000  
2005  233   27.40000     9.96000  
2005  234   29.66000    12.36000  
2005  235   31.74000    11.60000  
2005  236   30.60000    11.51000  
2005  237   28.19000     9.16000  
2005  238   30.34000     9.80000  
2005  239   31.76000    11.48000  
2005  240   18.08000     7.86000  
2005  241   23.38000     4.50000  
2005  242   27.33000     6.13000  
2005  243   28.48000     7.70000  
2005  244   23.88000    10.49000  
2005  245   28.52000    12.26000  
2005  246   27.72000    10.12000  
2005  247   28.45000    11.67000  
2005  248   26.99000    10.96000  
2005  249   27.87000    12.31000  
2005  250   21.32000     7.30000  
2005  251   23.60000     6.92000  
2005  252   23.56000     6.41000  
2005  253   27.01000     7.83000  
2005  254   28.91000     7.76000  
2005  255   28.39000     8.65000  
2005  256   28.72000     8.49000  
2005  257   28.37000     9.06000  
2005  258   28.32000     9.44000  
2005  259   29.11000     8.58000  
2005  260   29.26000     7.62000  
2005  261   31.30000     8.32000  
2005  262   29.74000    14.18000  
2005  263   26.74000    10.62000  
2005  264   18.23000    10.93000  
2005  265   20.57000     8.56000  
2005  266   17.65000     9.80000  
2005  267   11.79000     7.61000  
2005  268   13.41000     8.24000  
2005  269   12.85000     3.60000  
2005  270   20.95000     4.07000  
2005  271   26.61000     4.07000  
2005  272   26.63000     5.50000  
2005  273   28.37000     3.79000  
2005  274   27.65000     8.98000  
2005  275   25.95000     9.15000  
2005  276   20.91000     9.83000  
2005  277   21.37000     5.44000  
2005  278   22.91000     5.29000  
2005  279   19.36000     6.88000  
2005  280   18.79000     2.00000  
2005  281   20.53000     2.16000  
2005  282   16.86000     0.01000  
2005  283   17.91000     0.27000  
2005  284   19.91000    -0.24000  
2005  285   21.83000     5.17000  
2005  286   19.99000     2.20000  
2005  287   22.05000     2.25000  
2005  288   20.15000     4.46000  
2005  289   18.59000     4.19000  
2005  290   18.50000     1.06000  
2005  291   19.97000     0.74000  
2005  292   21.83000     1.64000  
2005  293   21.48000     0.16000  
2005  294   10.02000    -4.03000  
2005  295    9.85000    -6.34000  
2005  296   11.73000    -7.28000  
2005  297   14.08000    -5.35000  
2005  298   14.41000    -3.61000  
2005  299   13.85000    -5.21000  
2005  300   11.96000    -4.56000  
2005  301   12.16000    -4.83000  
2005  302   15.15000    -4.63000  
2005  303   12.83000    -4.24000  
2005  304   13.62000    -3.35000  
2005  305   14.69000    -2.92000  
2005  306   16.25000    -3.74000  
2005  307   14.68000    -3.63000  
2005  308   10.11000    -2.51000  
2005  309   11.04000    -3.26000  
2005  310   13.95000    -5.13000  
2005  311   12.28000    -2.28000  
2005  312   14.40000    -2.03000  
2005  313   12.47000    -3.65000  
2005  314    8.58000    -4.07000  
2005  315    9.50000    -4.51000  
2005  316    2.64000    -9.21000  
2005  317    5.60000    -8.58000  
2005  318    4.97000    -7.99000  
2005  319    6.03000    -8.22000  
2005  320    4.25000   -10.01000  
2005  321    2.90000   -12.38000  
2005  322    2.30000   -12.07000  
2005  323    4.58000   -12.54000  
2005  324    5.79000   -12.57000  
2005  325    4.85000    -9.71000  
2005  326    4.28000    -6.61000  
2005  327    5.99000   -12.04000  
2005  328    6.63000   -13.24000  
2005  329    4.01000    -9.76000  
2005  330    3.79000   -12.68000  
2005  331    3.12000   -10.32000  
2005  332    7.57000    -7.50000  
2005  333    7.72000    -8.10000  
2005  334    5.30000    -7.03000  
2005  335    7.57000    -8.03000  
2005  336    0.81000   -14.01000  
2005  337  -10.91000   -25.38000  
2005  338  -12.32000   -26.55000  
2005  339   -7.35000   -25.70000  
2005  340   -2.17000   -12.37000  
2005  341   -0.11000    -9.28000  
2005  342    5.01000    -8.19000  
2005  343    3.60000   -12.07000  
2005  344    2.18000   -12.72000  
2005  345    0.91000   -13.13000  
2005  346    2.21000    -9.52000  
2005  347   -1.58000   -13.47000  
2005  348    2.71000   -13.80000  
2005  349    3.31000   -11.52000  
2005  350    0.16000   -12.80000  
2005  351   -0.72000   -13.89000  
2005  352    1.90000   -11.04000  
2005  353   -0.75000   -10.44000  
2005  354   -0.33000   -17.15000  
2005  355  -12.26000   -17.56000  
2005  356   -7.95000   -16.71000  
2005  357   -0.90000   -16.17000  
2005  358   -2.31000   -15.85000  
2005  359   -7.36000   -16.44000  
2005  360   -6.44000   -10.34000  
2005  361   -8.15000   -23.36000  
2005  362  -13.32000   -26.41000  
2005  363  -12.02000   -22.52000  
2005  364  -11.54000   -23.46000  
2005  365   -7.54000   -22.34000  
2006    1   -5.36000   -21.93000  
2006    2   -4.54000   -18.81000  
2006    3   -4.50000   -19.69000  
2006    4   -1.95000   -20.47000  
2006    5   -3.81000   -19.26000  
2006    6   -1.93000   -18.84000  
2006    7   -4.13000   -18.53000  
2006    8   -1.42000   -16.74000  
2006    9   -1.65000   -14.89000  
2006   10   -5.92000   -16.36000  
2006   11   -4.54000   -14.61000  
2006   12   -5.42000   -15.71000  
2006   13   -2.40000   -18.27000  
2006   14   -4.46000   -18.72000  
2006   15   -5.15000   -17.23000  
2006   16   -2.69000   -16.23000  
2006   17   -7.76000   -17.88000  
2006   18   -7.65000   -16.74000  
2006   19  -10.26000   -21.14000  
2006   20  -12.47000   -26.26000  
2006   21  -14.42000   -28.99000  
2006   22  -17.52000   -30.51000  
2006   23  -20.96000   -31.00000  
2006   24  -21.79000   -30.60000  
2006   25  -19.70000   -28.61000  
2006   26  -19.35000   -29.35000  
2006   27  -14.87000   -26.62000  
2006   28  -13.24000   -24.17000  
2006   29  -13.25000   -27.87000  
2006   30  -15.35000   -27.89000  
2006   31  -15.03000   -28.95000  
2006   32  -11.94000   -29.51000  
2006   33   -9.45000   -25.80000  
2006   34  -10.38000   -26.30000  
2006   35   -8.85000   -26.89000  
2006   36   -5.55000   -26.52000  
2006   37   -7.46000   -26.62000  
2006   38  -10.28000   -26.52000  
2006   39   -6.43000   -26.27000  
2006   40   -4.65000   -23.63000  
2006   41   -5.76000   -22.46000  
2006   42   -6.49000   -23.29000  
2006   43   -5.18000   -19.93000  
2006   44   -2.09000   -22.31000  
2006   45   -4.34000   -22.32000  
2006   46   -3.89000   -18.16000  
2006   47   -3.84000   -18.48000  
2006   48    0.12000   -15.10000  
2006   49    5.41000   -15.89000  
2006   50    5.65000   -12.16000  
2006   51    6.62000   -11.06000  
2006   52   11.79000    -8.71000  
2006   53    6.69000    -4.61000  
2006   54    3.81000    -5.03000  
2006   55    3.57000   -13.99000  
2006   56    2.13000   -15.49000  
2006   57    5.42000   -15.48000  
2006   58    6.01000    -8.89000  
2006   59   11.16000   -10.18000  
2006   60    9.23000   -10.16000  
2006   61   11.14000    -9.79000  
2006   62    9.88000    -8.01000  
2006   63   12.85000    -7.36000  
2006   64   10.78000    -3.55000  
2006   65   12.36000    -3.59000  
2006   66   13.42000    -6.33000  
2006   67   14.78000    -6.76000  
2006   68   16.13000    -0.99000  
2006   69   16.35000    -3.05000  
2006   70   16.28000    -4.17000  
2006   71    5.63000    -5.88000  
2006   72   17.31000    -4.96000  
2006   73   10.15000    -5.53000  
2006   74   17.77000    -5.81000  
2006   75   21.37000     1.76000  
2006   76   20.20000    -0.04000  
2006   77   13.63000    -0.07000  
2006   78   12.38000    -0.15000  
2006   79   10.63000    -5.95000  
2006   80   14.56000    -5.99000  
2006   81   13.65000    -6.72000  
2006   82   17.08000    -7.21000  
2006   83   18.46000    -1.07000  
2006   84   19.62000     0.47000  
2006   85   15.60000     0.13000  
2006   86    5.46000    -1.64000  
2006   87   10.73000    -0.44000  
2006   88   12.30000    -0.91000  
2006   89    8.42000    -3.74000  
2006   90    7.64000    -5.36000  
2006   91   11.25000    -8.44000  
2006   92   14.99000    -6.82000  
2006   93   15.72000    -4.12000  
2006   94   18.19000    -3.96000  
2006   95   20.95000    -0.38000  
2006   96   23.85000     1.95000  
2006   97   19.08000     2.64000  
2006   98   22.30000     2.80000  
2006   99   18.90000     3.18000  
2006  100   12.51000     1.47000  
2006  101   15.66000    -0.80000  
2006  102   16.02000    -2.17000  
2006  103   18.27000     0.90000  
2006  104   21.13000     0.69000  
2006  105   24.22000     1.66000  
2006  106   24.59000     4.22000  
2006  107   26.82000     7.02000  
2006  108   23.77000     1.10000  
2006  109   13.98000    -2.22000  
2006  110    6.63000    -0.88000  
2006  111   10.98000    -5.15000  
2006  112   12.61000    -4.88000  
2006  113   20.23000    -3.29000  
2006  114   23.32000     0.28000  
2006  115   24.92000     3.58000  
2006  116   23.19000     5.96000  
2006  117   25.85000     8.78000  
2006  118   26.68000     8.21000  
2006  119   19.77000     6.97000  
2006  120   28.61000     7.76000  
2006  121   19.45000     6.48000  
2006  122   15.83000    -0.46000  
2006  123   22.77000     1.13000  
2006  124   25.35000     6.29000  
2006  125   29.60000     8.83000  
2006  126   22.43000    11.43000  
2006  127   22.97000     7.27000  
2006  128   19.24000     2.61000  
2006  129   21.84000     2.02000  
2006  130   26.04000     6.79000  
2006  131   26.17000     5.83000  
2006  132   26.23000     7.40000  
2006  133   28.49000     9.07000  
2006  134   31.23000    13.57000  
2006  135   32.65000    14.17000  
2006  136   30.92000    15.30000  
2006  137   28.59000    10.40000  
2006  138   26.56000     6.60000  
2006  139   29.10000    10.46000  
2006  140   27.39000    13.45000  
2006  141   26.28000    13.28000  
2006  142   27.78000    10.66000  
2006  143   30.41000    11.68000  
2006  144   32.36000    13.36000  
2006  145   32.61000    14.36000  
2006  146   25.28000     7.85000  
2006  147   29.29000    10.09000  
2006  148   27.06000    10.94000  
2006  149   27.82000     7.65000  
2006  150   29.35000    11.09000  
2006  151   31.83000    17.25000  
2006  152   32.08000    12.88000  
2006  153   34.08000    12.59000  
2006  154   34.92000    17.39000  
2006  155   32.69000    17.58000  
2006  156   26.49000    11.54000  
2006  157   27.76000    15.58000  
2006  158   31.18000    14.65000  
2006  159   33.65000    13.50000  
2006  160   35.59000    18.83000  
2006  161   34.96000    18.56000  
2006  162   35.75000    17.03000  
2006  163   27.23000    12.01000  
2006  164   27.91000    10.19000  
2006  165   28.02000    11.22000  
2006  166   31.26000    13.31000  
2006  167   31.02000    14.73000  
2006  168   31.31000    12.45000  
2006  169   29.38000    13.75000  
2006  170   23.11000    10.31000  
2006  171   29.18000    15.62000  
2006  172   25.62000    12.84000  
2006  173   27.88000     9.25000  
2006  174   30.50000    13.36000  
2006  175   32.85000    18.28000  
2006  176   32.87000    21.12000  
2006  177   33.83000    17.78000  
2006  178   30.45000    18.57000  
2006  179   26.18000    13.40000  
2006  180   31.66000    15.17000  
2006  181   34.13000    15.19000  
2006  182   35.43000    19.51000  
2006  183   32.36000    20.71000  
2006  184   28.73000    13.58000  
2006  185   33.58000    15.18000  
2006  186   34.50000    12.35000  
2006  187   35.98000    14.62000  
2006  188   35.14000    19.21000  
2006  189   33.30000    18.48000  
2006  190   19.83000    10.93000  
2006  191   29.26000    13.95000  
2006  192   31.38000    14.76000  
2006  193   26.82000    12.01000  
2006  194   30.94000    12.37000  
2006  195   32.93000    13.18000  
2006  196   34.51000    15.98000  
2006  197   27.03000    13.49000  
2006  198   31.21000    13.72000  
2006  199   32.18000    13.41000  
2006  200   33.43000    17.04000  
2006  201   33.08000    19.86000  
2006  202   32.55000    17.06000  
2006  203   35.05000    21.23000  
2006  204   33.42000    19.56000  
2006  205   32.97000    20.11000  
2006  206   29.72000    18.74000  
2006  207   34.03000    20.22000  
2006  208   27.36000    14.52000  
2006  209   30.85000    17.35000  
2006  210   20.69000    14.39000  
2006  211   23.03000    15.17000  
2006  212   29.34000    14.84000  
2006  213   32.63000    13.30000  
2006  214   34.31000    14.92000  
2006  215   36.06000    17.19000  
2006  216   37.58000    16.03000  
2006  217   36.72000    18.86000  
2006  218   29.45000    14.98000  
2006  219   21.82000     8.63000  
2006  220   28.67000    10.80000  
2006  221   28.67000    12.43000  
2006  222   30.16000    11.58000  
2006  223   29.90000    10.84000  
2006  224   30.26000    11.96000  
2006  225   30.90000    13.17000  
2006  226   31.18000    15.01000  
2006  227   29.04000    11.32000  
2006  228   30.61000    12.97000  
2006  229   32.87000    14.23000  
2006  230   34.13000    18.13000  
2006  231   25.51000    11.74000  
2006  232   21.97000     8.93000  
2006  233   27.40000     9.96000  
2006  234   29.66000    12.36000  
2006  235   31.74000    11.60000  
2006  236   30.60000    11.51000  
2006  237   28.19000     9.16000  
2006  238   30.34000     9.80000  
2006  239   31.76000    11.48000  
2006  240   18.08000     7.86000  
2006  241   23.38000     4.50000  
2006  242   27.33000     6.13000  
2006  243   28.48000     7.70000  
2006  244   23.88000    10.49000  
2006  245   28.52000    12.26000  
2006  246   27.72000    10.12000  
2006  247   28.45000    11.67000  
2006  248   26.99000    10.96000  
2006  249   27.87000    12.31000  
2006  250   21.32000     7.30000  
2006  251   23.60000     6.92000  
2006  252   23.56000     6.41000  
2006  253   27.01000     7.83000  
2006  254   28.91000     7.76000  
2006  255   28.39000     8.65000  
2006  256   28.72000     8.49000  
2006  257   28.37000     9.06000  
2006  258   28.32000     9.44000  
2006  259   29.11000     8.58000  
2006  260   29.26000     7.62000  
2006  261   31.30000     8.32000  
2006  262   29.74000    14.18000  
2006  263   26.74000    10.62000  
2006  264   18.23000    10.93000  
2006  265   20.57000     8.56000  
2006  266   17.65000     9.80000  
2006  267   11.79000     7.61000  
2006  268   13.41000     8.24000  
2006  269   12.85000     3.60000  
2006  270   20.95000     4.07000  
2006  271   26.61000     4.07000  
2006  272   26.63000     5.50000  
2006  273   28.37000     3.79000  
2006  274   27.65000     8.98000  
2006  275   25.95000     9.15000  
2006  276   20.91000     9.83000  
2006  277   21.37000     5.44000  
2006  278   22.91000     5.29000  
2006  279   19.36000     6.88000  
2006  280   18.79000     2.00000  
2006  281   20.53000     2.16000  
2006  282   16.86000     0.01000  
2006  283   17.91000     0.27000  
2006  284   19.91000    -0.24000  
2006  285   21.83000     5.17000  
2006  286   19.99000     2.20000  
2006  287   22.05000     2.25000  
2006  288   20.15000     4.46000  
2006  289   18.59000     4.19000  
2006  290   18.50000     1.06000  
2006  291   19.97000     0.74000  
2006  292   21.83000     1.64000  
2006  293   21.48000     0.16000  
2006  294   10.02000    -4.03000  
2006  295    9.85000    -6.34000  
2006  296   11.73000    -7.28000  
2006  297   14.08000    -5.35000  
2006  298   14.41000    -3.61000  
2006  299   13.85000    -5.21000  
2006  300   11.96000    -4.56000  
2006  301   12.16000    -4.83000  
2006  302   15.15000    -4.63000  
2006  303   12.83000    -4.24000  
2006  304   13.62000    -3.35000  
2006  305   14.69000    -2.92000  
2006  306   16.25000    -3.74000  
2006  307   14.68000    -3.63000  
2006  308   10.11000    -2.51000  
2006  309   11.04000    -3.26000  
2006  310   13.95000    -5.13000  
2006  311   12.28000    -2.28000  
2006  312   14.40000    -2.03000  
2006  313   12.47000    -3.65000  
2006  314    8.58000    -4.07000  
2006  315    9.50000    -4.51000  
2006  316    2.64000    -9.21000  
2006  317    5.60000    -8.58000  
2006  318    4.97000    -7.99000  
2006  319    6.03000    -8.22000  
2006  320    4.25000   -10.01000  
2006  321    2.90000   -12.38000  
2006  322    2.30000   -12.07000  
2006  323    4.58000   -12.54000  
2006  324    5.79000   -12.57000  
2006  325    4.85000    -9.71000  
2006  326    4.28000    -6.61000  
2006  327    5.99000   -12.04000  
2006  328    6.63000   -13.24000  
2006  329    4.01000    -9.76000  
2006  330    3.79000   -12.68000  
2006  331    3.12000   -10.32000  
2006  332    7.57000    -7.50000  
2006  333    7.72000    -8.10000  
2006  334    5.30000    -7.03000  
2006  335    7.57000    -8.03000  
2006  336    0.81000   -14.01000  
2006  337  -10.91000   -25.38000  
2006  338  -12.32000   -26.55000  
2006  339   -7.35000   -25.70000  
2006  340   -2.17000   -12.37000  
2006  341   -0.11000    -9.28000  
2006  342    5.01000    -8.19000  
2006  343    3.60000   -12.07000  
2006  344    2.18000   -12.72000  
2006  345    0.91000   -13.13000  
2006  346    2.21000    -9.52000  
2006  347   -1.58000   -13.47000  
2006  348    2.71000   -13.80000  
2006  349    3.31000   -11.52000  
2006  350    0.16000   -12.80000  
2006  351   -0.72000   -13.89000  
2006  352    1.90000   -11.04000  
2006  353   -0.75000   -10.44000  
2006  354   -0.33000   -17.15000  
2006  355  -12.26000   -17.56000  
2006  356   -7.95000   -16.71000  
2006  357   -0.90000   -16.17000  
2006  358   -2.31000   -15.85000  
2006  359   -7.36000   -16.44000  
2006  360   -6.44000   -10.34000  
2006  361   -8.15000   -23.36000  
2006  362  -13.32000   -26.41000  
2006  363  -12.02000   -22.52000  
2006  364  -11.54000   -23.46000  
2006  365   -7.54000   -22.34000  
2007    1   -5.36000   -21.93000  
2007    2   -4.54000   -18.81000  
2007    3   -4.50000   -19.69000  
2007    4   -1.95000   -20.47000  
2007    5   -3.81000   -19.26000  
2007    6   -1.93000   -18.84000  
2007    7   -4.13000   -18.53000  
2007    8   -1.42000   -16.74000  
2007    9   -1.65000   -14.89000  
2007   10   -5.92000   -16.36000  
2007   11   -4.54000   -14.61000  
2007   12   -5.42000   -15.71000  
2007   13   -2.40000   -18.27000  
2007   14   -4.46000   -18.72000  
2007   15   -5.15000   -17.23000  
2007   16   -2.69000   -16.23000  
2007   17   -7.76000   -17.88000  
2007   18   -7.65000   -16.74000  
2007   19  -10.26000   -21.14000  
2007   20  -12.47000   -26.26000  
2007   21  -14.42000   -28.99000  
2007   22  -17.52000   -30.51000  
2007   23  -20.96000   -31.00000  
2007   24  -21.79000   -30.60000  
2007   25  -19.70000   -28.61000  
2007   26  -19.35000   -29.35000  
2007   27  -14.87000   -26.62000  
2007   28  -13.24000   -24.17000  
2007   29  -13.25000   -27.87000  
2007   30  -15.35000   -27.89000  
2007   31  -15.03000   -28.95000  
2007   32  -11.94000   -29.51000  
2007   33   -9.45000   -25.80000  
2007   34  -10.38000   -26.30000  
2007   35   -8.85000   -26.89000  
2007   36   -5.55000   -26.52000  
2007   37   -7.46000   -26.62000  
2007   38  -10.28000   -26.52000  
2007   39   -6.43000   -26.27000  
2007   40   -4.65000   -23.63000  
2007   41   -5.76000   -22.46000  
2007   42   -6.49000   -23.29000  
2007   43   -5.18000   -19.93000  
2007   44   -2.09000   -22.31000  
2007   45   -4.34000   -22.32000  
2007   46   -3.89000   -18.16000  
2007   47   -3.84000   -18.48000  
2007   48    0.12000   -15.10000  
2007   49    5.41000   -15.89000  
2007   50    5.65000   -12.16000  
2007   51    6.62000   -11.06000  
2007   52   11.79000    -8.71000  
2007   53    6.69000    -4.61000  
2007   54    3.81000    -5.03000  
2007   55    3.57000   -13.99000  
2007   56    2.13000   -15.49000  
2007   57    5.42000   -15.48000  
2007   58    6.01000    -8.89000  
2007   59   11.16000   -10.18000  
2007   60    9.23000   -10.16000  
2007   61   11.14000    -9.79000  
2007   62    9.88000    -8.01000  
2007   63   12.85000    -7.36000  
2007   64   10.78000    -3.55000  
2007   65   12.36000    -3.59000  
2007   66   13.42000    -6.33000  
2007   67   14.78000    -6.76000  
2007   68   16.13000    -0.99000  
2007   69   16.35000    -3.05000  
2007   70   16.28000    -4.17000  
2007   71    5.63000    -5.88000  
2007   72   17.31000    -4.96000  
2007   73   10.15000    -5.53000  
2007   74   17.77000    -5.81000  
2007   75   21.37000     1.76000  
2007   76   20.20000    -0.04000  
2007   77   13.63000    -0.07000  
2007   78   12.38000    -0.15000  
2007   79   10.63000    -5.95000  
2007   80   14.56000    -5.99000  
2007   81   13.65000    -6.72000  
2007   82   17.08000    -7.21000  
2007   83   18.46000    -1.07000  
2007   84   19.62000     0.47000  
2007   85   15.60000     0.13000  
2007   86    5.46000    -1.64000  
2007   87   10.73000    -0.44000  
2007   88   12.30000    -0.91000  
2007   89    8.42000    -3.74000  
2007   90    7.64000    -5.36000  
2007   91   11.25000    -8.44000  
2007   92   14.99000    -6.82000  
2007   93   15.72000    -4.12000  
2007   94   18.19000    -3.96000  
2007   95   20.95000    -0.38000  
2007   96   23.85000     1.95000  
2007   97   19.08000     2.64000  
2007   98   22.30000     2.80000  