164154tmp.tem: Temperature data - file written by SWAT+ editor 2025-11-04 13:23:50.536273
nbyr     tstep       lat       lon      elev
  14         0    40.781    98.281  1598.000
2005    1   -7.55000   -24.09000  
2005    2   -5.77000   -22.21000  
2005    3   -5.11000   -22.90000  
2005    4   -3.95000   -23.33000  
2005    5   -3.98000   -23.07000  
2005    6   -3.74000   -20.81000  
2005    7   -5.62000   -20.68000  
2005    8   -4.37000   -19.60000  
2005    9   -4.20000   -16.07000  
2005   10   -7.12000   -17.95000  
2005   11   -6.87000   -17.97000  
2005   12   -7.91000   -18.92000  
2005   13   -6.02000   -20.45000  
2005   14   -5.84000   -21.17000  
2005   15   -6.73000   -21.09000  
2005   16   -4.54000   -19.20000  
2005   17   -8.50000   -20.10000  
2005   18   -8.32000   -19.64000  
2005   19  -11.94000   -23.77000  
2005   20  -15.10000   -30.01000  
2005   21  -16.44000   -33.21000  
2005   22  -20.34000   -33.91000  
2005   23  -23.82000   -35.07000  
2005   24  -23.94000   -34.55000  
2005   25  -21.25000   -31.00000  
2005   26  -21.00000   -31.51000  
2005   27  -17.43000   -28.00000  
2005   28  -16.19000   -25.81000  
2005   29  -16.39000   -31.45000  
2005   30  -19.05000   -32.09000  
2005   31  -16.23000   -33.00000  
2005   32  -14.92000   -33.82000  
2005   33  -13.57000   -28.96000  
2005   34  -11.76000   -27.71000  
2005   35  -10.60000   -30.64000  
2005   36   -8.84000   -31.33000  
2005   37  -11.08000   -30.69000  
2005   38  -11.35000   -31.01000  
2005   39   -8.93000   -30.50000  
2005   40   -6.06000   -28.37000  
2005   41   -8.80000   -26.05000  
2005   42   -9.83000   -26.59000  
2005   43   -6.77000   -23.19000  
2005   44   -4.66000   -23.99000  
2005   45   -7.67000   -24.42000  
2005   46   -7.43000   -20.07000  
2005   47   -7.09000   -21.30000  
2005   48   -1.59000   -19.85000  
2005   49    2.52000   -20.19000  
2005   50    3.52000   -15.96000  
2005   51    4.49000   -12.77000  
2005   52    8.72000   -12.17000  
2005   53    3.27000   -10.10000  
2005   54    1.56000    -7.21000  
2005   55    1.33000   -16.43000  
2005   56   -0.78000   -17.14000  
2005   57    2.02000   -17.67000  
2005   58    4.58000   -11.45000  
2005   59    8.22000    -9.92000  
2005   60    6.93000   -12.74000  
2005   61    9.03000   -12.61000  
2005   62    8.34000   -10.98000  
2005   63   10.63000   -10.45000  
2005   64    8.82000    -3.98000  
2005   65    7.97000    -6.52000  
2005   66   11.08000    -8.31000  
2005   67   12.41000    -8.30000  
2005   68   14.72000    -4.19000  
2005   69   13.97000    -5.10000  
2005   70   12.92000    -5.47000  
2005   71    2.55000    -7.67000  
2005   72   16.05000    -8.09000  
2005   73    8.70000    -7.33000  
2005   74   16.01000    -7.66000  
2005   75   19.58000    -2.90000  
2005   76   18.79000    -1.34000  
2005   77   10.95000    -2.34000  
2005   78   10.13000    -2.50000  
2005   79   10.25000    -7.95000  
2005   80   11.82000    -8.30000  
2005   81   11.06000    -9.64000  
2005   82   15.34000    -9.55000  
2005   83   16.54000    -5.13000  
2005   84   18.18000    -2.09000  
2005   85   13.08000    -1.18000  
2005   86    3.42000    -3.69000  
2005   87    9.56000    -3.98000  
2005   88    9.14000    -2.81000  
2005   89    5.69000    -4.94000  
2005   90    5.55000    -7.78000  
2005   91    9.91000   -10.25000  
2005   92   12.77000    -8.23000  
2005   93   14.32000    -5.33000  
2005   94   16.27000    -4.86000  
2005   95   18.99000    -1.08000  
2005   96   20.90000    -0.25000  
2005   97   16.90000     1.75000  
2005   98   19.51000     1.27000  
2005   99   15.06000     0.07000  
2005  100   10.84000    -0.09000  
2005  101   14.44000    -2.82000  
2005  102   14.26000    -2.57000  
2005  103   17.27000    -0.44000  
2005  104   19.09000    -0.63000  
2005  105   23.52000     0.65000  
2005  106   23.04000     3.25000  
2005  107   25.06000     5.39000  
2005  108   20.96000    -1.77000  
2005  109   11.06000    -3.68000  
2005  110    5.21000    -2.87000  
2005  111    8.95000    -5.82000  
2005  112   11.06000    -5.75000  
2005  113   18.38000    -4.71000  
2005  114   21.79000    -2.09000  
2005  115   23.45000     0.86000  
2005  116   21.84000     2.79000  
2005  117   24.53000     6.69000  
2005  118   25.31000     5.77000  
2005  119   17.41000     4.57000  
2005  120   26.61000     5.25000  
2005  121   16.53000     3.82000  
2005  122   12.02000    -2.90000  
2005  123   20.52000     0.45000  
2005  124   22.70000     4.71000  
2005  125   27.33000     7.40000  
2005  126   20.81000     9.93000  
2005  127   20.56000     6.63000  
2005  128   16.89000     0.56000  
2005  129   19.25000     0.76000  
2005  130   23.46000     4.32000  
2005  131   22.76000     5.03000  
2005  132   23.80000     4.50000  
2005  133   26.87000     7.32000  
2005  134   29.75000    10.50000  
2005  135   30.91000    13.83000  
2005  136   28.28000    13.81000  
2005  137   25.19000     9.07000  
2005  138   23.52000     5.08000  
2005  139   26.88000     9.45000  
2005  140   24.82000    12.22000  
2005  141   24.94000     9.29000  
2005  142   27.04000     7.97000  
2005  143   28.40000    10.09000  
2005  144   30.89000    10.31000  
2005  145   30.77000    12.96000  
2005  146   23.50000     5.64000  
2005  147   26.95000     9.14000  
2005  148   24.51000     8.46000  
2005  149   24.48000     5.26000  
2005  150   27.13000    10.73000  
2005  151   29.75000    15.29000  
2005  152   29.66000    10.43000  
2005  153   30.03000    11.25000  
2005  154   32.49000    16.45000  
2005  155   30.07000    16.83000  
2005  156   25.16000     8.88000  
2005  157   25.88000    13.39000  
2005  158   30.00000    12.63000  
2005  159   32.17000    12.47000  
2005  160   33.75000    17.39000  
2005  161   33.48000    16.09000  
2005  162   34.45000    14.74000  
2005  163   24.65000    11.29000  
2005  164   26.01000     8.29000  
2005  165   26.49000     8.38000  
2005  166   29.58000    11.57000  
2005  167   28.21000    13.57000  
2005  168   28.73000    11.29000  
2005  169   27.67000    12.77000  
2005  170   22.81000     8.24000  
2005  171   27.39000    13.65000  
2005  172   21.05000     9.74000  
2005  173   26.81000     7.73000  
2005  174   28.91000    12.19000  
2005  175   31.24000    16.32000  
2005  176   32.56000    19.23000  
2005  177   32.42000    15.74000  
2005  178   28.03000    16.81000  
2005  179   24.74000    11.72000  
2005  180   29.71000    13.78000  
2005  181   32.27000    15.28000  
2005  182   33.54000    19.31000  
2005  183   32.49000    19.91000  
2005  184   27.43000    10.62000  
2005  185   32.33000    11.99000  
2005  186   33.06000    12.45000  
2005  187   33.41000    14.40000  
2005  188   33.43000    18.70000  
2005  189   31.24000    17.89000  
2005  190   20.37000    10.64000  
2005  191   28.29000    13.82000  
2005  192   30.03000    13.04000  
2005  193   27.08000    11.28000  
2005  194   28.59000    11.79000  
2005  195   31.08000    11.92000  
2005  196   33.16000    16.07000  
2005  197   24.72000    11.92000  
2005  198   30.27000    12.65000  
2005  199   29.92000    13.09000  
2005  200   31.51000    16.70000  
2005  201   32.25000    19.24000  
2005  202   30.33000    15.43000  
2005  203   33.28000    19.40000  
2005  204   32.82000    19.82000  
2005  205   31.42000    19.51000  
2005  206   29.00000    17.65000  
2005  207   32.49000    19.25000  
2005  208   26.88000    14.29000  
2005  209   29.70000    17.29000  
2005  210   21.49000    14.29000  
2005  211   22.34000    14.64000  
2005  212   29.01000    14.88000  
2005  213   31.97000    14.27000  
2005  214   33.37000    14.74000  
2005  215   35.45000    18.00000  
2005  216   36.26000    15.65000  
2005  217   34.97000    18.66000  
2005  218   28.55000    15.04000  
2005  219   20.22000     9.67000  
2005  220   26.33000     8.76000  
2005  221   26.37000    11.48000  
2005  222   28.43000    12.80000  
2005  223   29.01000    10.28000  
2005  224   29.14000    11.75000  
2005  225   29.61000    12.62000  
2005  226   29.78000    14.21000  
2005  227   26.81000    10.04000  
2005  228   28.83000    12.09000  
2005  229   30.84000    14.24000  
2005  230   31.56000    16.25000  
2005  231   24.99000    11.08000  
2005  232   20.87000     8.25000  
2005  233   26.21000     7.38000  
2005  234   27.62000    10.19000  
2005  235   29.26000     9.24000  
2005  236   29.06000    11.30000  
2005  237   26.14000     7.95000  
2005  238   27.33000     8.30000  
2005  239   29.64000    10.78000  
2005  240   15.90000     7.31000  
2005  241   21.72000     3.09000  
2005  242   24.86000     5.10000  
2005  243   26.33000     7.01000  
2005  244   22.18000     8.38000  
2005  245   27.53000    10.73000  
2005  246   26.58000     5.87000  
2005  247   26.12000     8.85000  
2005  248   25.21000    11.77000  
2005  249   25.18000    12.31000  
2005  250   21.29000     4.98000  
2005  251   21.10000     5.20000  
2005  252   21.53000     2.41000  
2005  253   25.31000     4.12000  
2005  254   27.18000     5.97000  
2005  255   26.76000     6.79000  
2005  256   27.26000     6.45000  
2005  257   26.92000     7.39000  
2005  258   26.85000     6.21000  
2005  259   27.80000     6.19000  
2005  260   27.79000     7.41000  
2005  261   28.24000     8.84000  
2005  262   27.36000    13.14000  
2005  263   24.07000     8.37000  
2005  264   16.55000     9.04000  
2005  265   19.13000     7.20000  
2005  266   15.58000     7.38000  
2005  267   13.06000     5.22000  
2005  268   12.62000     6.35000  
2005  269   11.42000     1.52000  
2005  270   19.45000     2.01000  
2005  271   25.23000     3.78000  
2005  272   24.41000     5.02000  
2005  273   26.77000     4.72000  
2005  274   26.26000     6.88000  
2005  275   24.88000     7.63000  
2005  276   14.68000     6.64000  
2005  277   19.50000     3.15000  
2005  278   20.23000     2.68000  
2005  279   18.40000     4.94000  
2005  280   17.18000    -0.02000  
2005  281   19.21000     0.64000  
2005  282   14.19000    -0.95000  
2005  283   15.95000    -1.40000  
2005  284   17.95000    -1.10000  
2005  285   20.21000     2.27000  
2005  286   17.74000     0.61000  
2005  287   20.40000     1.10000  
2005  288   17.73000     1.58000  
2005  289   17.49000     0.97000  
2005  290   17.64000    -2.24000  
2005  291   18.16000    -1.72000  
2005  292   20.42000    -1.51000  
2005  293   19.53000    -1.64000  
2005  294    6.59000    -6.35000  
2005  295    7.77000    -9.35000  
2005  296    8.57000    -9.49000  
2005  297   12.62000    -9.65000  
2005  298   12.44000    -7.69000  
2005  299   11.58000    -7.63000  
2005  300    9.25000    -8.30000  
2005  301   10.71000    -7.87000  
2005  302   12.17000    -7.96000  
2005  303   11.30000    -7.40000  
2005  304   12.44000    -5.84000  
2005  305   12.64000    -5.88000  
2005  306   14.33000    -6.63000  
2005  307   12.47000    -6.97000  
2005  308    9.60000    -5.99000  
2005  309   10.17000    -5.82000  
2005  310   12.14000    -6.33000  
2005  311   10.19000    -5.93000  
2005  312   11.92000    -4.17000  
2005  313   10.21000    -5.03000  
2005  314    7.19000    -5.42000  
2005  315    6.85000    -5.54000  
2005  316    1.22000   -12.70000  
2005  317    4.21000   -12.36000  
2005  318    3.29000   -12.35000  
2005  319    4.52000   -12.48000  
2005  320    1.74000   -12.03000  
2005  321    0.58000   -15.52000  
2005  322    0.24000   -15.54000  
2005  323    3.04000   -16.30000  
2005  324    2.91000   -14.87000  
2005  325    3.02000   -13.89000  
2005  326    2.67000   -10.38000  
2005  327    4.14000   -16.15000  
2005  328    4.17000   -16.41000  
2005  329    1.68000   -13.92000  
2005  330    1.81000   -15.16000  
2005  331    2.15000   -13.41000  
2005  332    6.02000   -12.00000  
2005  333    6.26000   -11.86000  
2005  334    3.08000   -10.31000  
2005  335    5.27000   -10.05000  
2005  336   -0.77000   -14.15000  
2005  337  -11.57000   -26.42000  
2005  338  -12.04000   -28.24000  
2005  339   -9.33000   -28.12000  
2005  340   -3.19000   -11.53000  
2005  341   -0.76000    -9.12000  
2005  342    4.40000    -7.27000  
2005  343    3.69000   -14.36000  
2005  344    2.96000   -15.52000  
2005  345    0.97000   -15.74000  
2005  346    0.11000   -12.65000  
2005  347   -3.36000   -16.92000  
2005  348    0.98000   -16.42000  
2005  349    2.33000   -13.42000  
2005  350   -1.56000   -15.84000  
2005  351   -1.94000   -17.27000  
2005  352    1.41000   -14.08000  
2005  353   -1.90000   -12.57000  
2005  354   -3.21000   -19.22000  
2005  355  -13.96000   -19.91000  
2005  356   -9.46000   -19.55000  
2005  357   -3.64000   -19.57000  
2005  358   -4.82000   -19.51000  
2005  359   -9.36000   -19.93000  
2005  360   -7.60000   -12.73000  
2005  361  -11.26000   -25.22000  
2005  362  -13.99000   -27.12000  
2005  363  -13.05000   -24.92000  
2005  364  -13.46000   -26.89000  
2005  365  -10.42000   -27.08000  
2006    1   -7.55000   -24.09000  
2006    2   -5.77000   -22.21000  
2006    3   -5.11000   -22.90000  
2006    4   -3.95000   -23.33000  
2006    5   -3.98000   -23.07000  
2006    6   -3.74000   -20.81000  
2006    7   -5.62000   -20.68000  
2006    8   -4.37000   -19.60000  
2006    9   -4.20000   -16.07000  
2006   10   -7.12000   -17.95000  
2006   11   -6.87000   -17.97000  
2006   12   -7.91000   -18.92000  
2006   13   -6.02000   -20.45000  
2006   14   -5.84000   -21.17000  
2006   15   -6.73000   -21.09000  
2006   16   -4.54000   -19.20000  
2006   17   -8.50000   -20.10000  
2006   18   -8.32000   -19.64000  
2006   19  -11.94000   -23.77000  
2006   20  -15.10000   -30.01000  
2006   21  -16.44000   -33.21000  
2006   22  -20.34000   -33.91000  
2006   23  -23.82000   -35.07000  
2006   24  -23.94000   -34.55000  
2006   25  -21.25000   -31.00000  
2006   26  -21.00000   -31.51000  
2006   27  -17.43000   -28.00000  
2006   28  -16.19000   -25.81000  
2006   29  -16.39000   -31.45000  
2006   30  -19.05000   -32.09000  
2006   31  -16.23000   -33.00000  
2006   32  -14.92000   -33.82000  
2006   33  -13.57000   -28.96000  
2006   34  -11.76000   -27.71000  
2006   35  -10.60000   -30.64000  
2006   36   -8.84000   -31.33000  
2006   37  -11.08000   -30.69000  
2006   38  -11.35000   -31.01000  
2006   39   -8.93000   -30.50000  
2006   40   -6.06000   -28.37000  
2006   41   -8.80000   -26.05000  
2006   42   -9.83000   -26.59000  
2006   43   -6.77000   -23.19000  
2006   44   -4.66000   -23.99000  
2006   45   -7.67000   -24.42000  
2006   46   -7.43000   -20.07000  
2006   47   -7.09000   -21.30000  
2006   48   -1.59000   -19.85000  
2006   49    2.52000   -20.19000  
2006   50    3.52000   -15.96000  
2006   51    4.49000   -12.77000  
2006   52    8.72000   -12.17000  
2006   53    3.27000   -10.10000  
2006   54    1.56000    -7.21000  
2006   55    1.33000   -16.43000  
2006   56   -0.78000   -17.14000  
2006   57    2.02000   -17.67000  
2006   58    4.58000   -11.45000  
2006   59    8.22000    -9.92000  
2006   60    6.93000   -12.74000  
2006   61    9.03000   -12.61000  
2006   62    8.34000   -10.98000  
2006   63   10.63000   -10.45000  
2006   64    8.82000    -3.98000  
2006   65    7.97000    -6.52000  
2006   66   11.08000    -8.31000  
2006   67   12.41000    -8.30000  
2006   68   14.72000    -4.19000  
2006   69   13.97000    -5.10000  
2006   70   12.92000    -5.47000  
2006   71    2.55000    -7.67000  
2006   72   16.05000    -8.09000  
2006   73    8.70000    -7.33000  
2006   74   16.01000    -7.66000  
2006   75   19.58000    -2.90000  
2006   76   18.79000    -1.34000  
2006   77   10.95000    -2.34000  
2006   78   10.13000    -2.50000  
2006   79   10.25000    -7.95000  
2006   80   11.82000    -8.30000  
2006   81   11.06000    -9.64000  
2006   82   15.34000    -9.55000  
2006   83   16.54000    -5.13000  
2006   84   18.18000    -2.09000  
2006   85   13.08000    -1.18000  
2006   86    3.42000    -3.69000  
2006   87    9.56000    -3.98000  
2006   88    9.14000    -2.81000  
2006   89    5.69000    -4.94000  
2006   90    5.55000    -7.78000  
2006   91    9.91000   -10.25000  
2006   92   12.77000    -8.23000  
2006   93   14.32000    -5.33000  
2006   94   16.27000    -4.86000  
2006   95   18.99000    -1.08000  
2006   96   20.90000    -0.25000  
2006   97   16.90000     1.75000  
2006   98   19.51000     1.27000  
2006   99   15.06000     0.07000  
2006  100   10.84000    -0.09000  
2006  101   14.44000    -2.82000  
2006  102   14.26000    -2.57000  
2006  103   17.27000    -0.44000  
2006  104   19.09000    -0.63000  
2006  105   23.52000     0.65000  
2006  106   23.04000     3.25000  
2006  107   25.06000     5.39000  
2006  108   20.96000    -1.77000  
2006  109   11.06000    -3.68000  
2006  110    5.21000    -2.87000  
2006  111    8.95000    -5.82000  
2006  112   11.06000    -5.75000  
2006  113   18.38000    -4.71000  
2006  114   21.79000    -2.09000  
2006  115   23.45000     0.86000  
2006  116   21.84000     2.79000  
2006  117   24.53000     6.69000  
2006  118   25.31000     5.77000  
2006  119   17.41000     4.57000  
2006  120   26.61000     5.25000  
2006  121   16.53000     3.82000  
2006  122   12.02000    -2.90000  
2006  123   20.52000     0.45000  
2006  124   22.70000     4.71000  
2006  125   27.33000     7.40000  
2006  126   20.81000     9.93000  
2006  127   20.56000     6.63000  
2006  128   16.89000     0.56000  
2006  129   19.25000     0.76000  
2006  130   23.46000     4.32000  
2006  131   22.76000     5.03000  
2006  132   23.80000     4.50000  
2006  133   26.87000     7.32000  
2006  134   29.75000    10.50000  
2006  135   30.91000    13.83000  
2006  136   28.28000    13.81000  
2006  137   25.19000     9.07000  
2006  138   23.52000     5.08000  
2006  139   26.88000     9.45000  
2006  140   24.82000    12.22000  
2006  141   24.94000     9.29000  
2006  142   27.04000     7.97000  
2006  143   28.40000    10.09000  
2006  144   30.89000    10.31000  
2006  145   30.77000    12.96000  
2006  146   23.50000     5.64000  
2006  147   26.95000     9.14000  
2006  148   24.51000     8.46000  
2006  149   24.48000     5.26000  
2006  150   27.13000    10.73000  
2006  151   29.75000    15.29000  
2006  152   29.66000    10.43000  
2006  153   30.03000    11.25000  
2006  154   32.49000    16.45000  
2006  155   30.07000    16.83000  
2006  156   25.16000     8.88000  
2006  157   25.88000    13.39000  
2006  158   30.00000    12.63000  
2006  159   32.17000    12.47000  
2006  160   33.75000    17.39000  
2006  161   33.48000    16.09000  
2006  162   34.45000    14.74000  
2006  163   24.65000    11.29000  
2006  164   26.01000     8.29000  
2006  165   26.49000     8.38000  
2006  166   29.58000    11.57000  
2006  167   28.21000    13.57000  
2006  168   28.73000    11.29000  
2006  169   27.67000    12.77000  
2006  170   22.81000     8.24000  
2006  171   27.39000    13.65000  
2006  172   21.05000     9.74000  
2006  173   26.81000     7.73000  
2006  174   28.91000    12.19000  
2006  175   31.24000    16.32000  
2006  176   32.56000    19.23000  
2006  177   32.42000    15.74000  
2006  178   28.03000    16.81000  
2006  179   24.74000    11.72000  
2006  180   29.71000    13.78000  
2006  181   32.27000    15.28000  
2006  182   33.54000    19.31000  
2006  183   32.49000    19.91000  
2006  184   27.43000    10.62000  
2006  185   32.33000    11.99000  
2006  186   33.06000    12.45000  
2006  187   33.41000    14.40000  
2006  188   33.43000    18.70000  
2006  189   31.24000    17.89000  
2006  190   20.37000    10.64000  
2006  191   28.29000    13.82000  
2006  192   30.03000    13.04000  
2006  193   27.08000    11.28000  
2006  194   28.59000    11.79000  
2006  195   31.08000    11.92000  
2006  196   33.16000    16.07000  
2006  197   24.72000    11.92000  
2006  198   30.27000    12.65000  
2006  199   29.92000    13.09000  
2006  200   31.51000    16.70000  
2006  201   32.25000    19.24000  
2006  202   30.33000    15.43000  
2006  203   33.28000    19.40000  
2006  204   32.82000    19.82000  
2006  205   31.42000    19.51000  
2006  206   29.00000    17.65000  
2006  207   32.49000    19.25000  
2006  208   26.88000    14.29000  
2006  209   29.70000    17.29000  
2006  210   21.49000    14.29000  
2006  211   22.34000    14.64000  
2006  212   29.01000    14.88000  
2006  213   31.97000    14.27000  
2006  214   33.37000    14.74000  
2006  215   35.45000    18.00000  
2006  216   36.26000    15.65000  
2006  217   34.97000    18.66000  
2006  218   28.55000    15.04000  
2006  219   20.22000     9.67000  
2006  220   26.33000     8.76000  
2006  221   26.37000    11.48000  
2006  222   28.43000    12.80000  
2006  223   29.01000    10.28000  
2006  224   29.14000    11.75000  
2006  225   29.61000    12.62000  
2006  226   29.78000    14.21000  
2006  227   26.81000    10.04000  
2006  228   28.83000    12.09000  
2006  229   30.84000    14.24000  
2006  230   31.56000    16.25000  
2006  231   24.99000    11.08000  
2006  232   20.87000     8.25000  
2006  233   26.21000     7.38000  
2006  234   27.62000    10.19000  
2006  235   29.26000     9.24000  
2006  236   29.06000    11.30000  
2006  237   26.14000     7.95000  
2006  238   27.33000     8.30000  
2006  239   29.64000    10.78000  
2006  240   15.90000     7.31000  
2006  241   21.72000     3.09000  
2006  242   24.86000     5.10000  
2006  243   26.33000     7.01000  
2006  244   22.18000     8.38000  
2006  245   27.53000    10.73000  
2006  246   26.58000     5.87000  
2006  247   26.12000     8.85000  
2006  248   25.21000    11.77000  
2006  249   25.18000    12.31000  
2006  250   21.29000     4.98000  
2006  251   21.10000     5.20000  
2006  252   21.53000     2.41000  
2006  253   25.31000     4.12000  
2006  254   27.18000     5.97000  
2006  255   26.76000     6.79000  
2006  256   27.26000     6.45000  
2006  257   26.92000     7.39000  
2006  258   26.85000     6.21000  
2006  259   27.80000     6.19000  
2006  260   27.79000     7.41000  
2006  261   28.24000     8.84000  
2006  262   27.36000    13.14000  
2006  263   24.07000     8.37000  
2006  264   16.55000     9.04000  
2006  265   19.13000     7.20000  
2006  266   15.58000     7.38000  
2006  267   13.06000     5.22000  
2006  268   12.62000     6.35000  
2006  269   11.42000     1.52000  
2006  270   19.45000     2.01000  
2006  271   25.23000     3.78000  
2006  272   24.41000     5.02000  
2006  273   26.77000     4.72000  
2006  274   26.26000     6.88000  
2006  275   24.88000     7.63000  
2006  276   14.68000     6.64000  
2006  277   19.50000     3.15000  
2006  278   20.23000     2.68000  
2006  279   18.40000     4.94000  
2006  280   17.18000    -0.02000  
2006  281   19.21000     0.64000  
2006  282   14.19000    -0.95000  
2006  283   15.95000    -1.40000  
2006  284   17.95000    -1.10000  
2006  285   20.21000     2.27000  
2006  286   17.74000     0.61000  
2006  287   20.40000     1.10000  
2006  288   17.73000     1.58000  
2006  289   17.49000     0.97000  
2006  290   17.64000    -2.24000  
2006  291   18.16000    -1.72000  
2006  292   20.42000    -1.51000  
2006  293   19.53000    -1.64000  
2006  294    6.59000    -6.35000  
2006  295    7.77000    -9.35000  
2006  296    8.57000    -9.49000  
2006  297   12.62000    -9.65000  
2006  298   12.44000    -7.69000  
2006  299   11.58000    -7.63000  
2006  300    9.25000    -8.30000  
2006  301   10.71000    -7.87000  
2006  302   12.17000    -7.96000  
2006  303   11.30000    -7.40000  
2006  304   12.44000    -5.84000  
2006  305   12.64000    -5.88000  
2006  306   14.33000    -6.63000  
2006  307   12.47000    -6.97000  
2006  308    9.60000    -5.99000  
2006  309   10.17000    -5.82000  
2006  310   12.14000    -6.33000  
2006  311   10.19000    -5.93000  
2006  312   11.92000    -4.17000  
2006  313   10.21000    -5.03000  
2006  314    7.19000    -5.42000  
2006  315    6.85000    -5.54000  
2006  316    1.22000   -12.70000  
2006  317    4.21000   -12.36000  
2006  318    3.29000   -12.35000  
2006  319    4.52000   -12.48000  
2006  320    1.74000   -12.03000  
2006  321    0.58000   -15.52000  
2006  322    0.24000   -15.54000  
2006  323    3.04000   -16.30000  
2006  324    2.91000   -14.87000  
2006  325    3.02000   -13.89000  
2006  326    2.67000   -10.38000  
2006  327    4.14000   -16.15000  
2006  328    4.17000   -16.41000  
2006  329    1.68000   -13.92000  
2006  330    1.81000   -15.16000  
2006  331    2.15000   -13.41000  
2006  332    6.02000   -12.00000  
2006  333    6.26000   -11.86000  
2006  334    3.08000   -10.31000  
2006  335    5.27000   -10.05000  
2006  336   -0.77000   -14.15000  
2006  337  -11.57000   -26.42000  
2006  338  -12.04000   -28.24000  
2006  339   -9.33000   -28.12000  
2006  340   -3.19000   -11.53000  
2006  341   -0.76000    -9.12000  
2006  342    4.40000    -7.27000  
2006  343    3.69000   -14.36000  
2006  344    2.96000   -15.52000  
2006  345    0.97000   -15.74000  
2006  346    0.11000   -12.65000  
2006  347   -3.36000   -16.92000  
2006  348    0.98000   -16.42000  
2006  349    2.33000   -13.42000  
2006  350   -1.56000   -15.84000  
2006  351   -1.94000   -17.27000  
2006  352    1.41000   -14.08000  
2006  353   -1.90000   -12.57000  
2006  354   -3.21000   -19.22000  
2006  355  -13.96000   -19.91000  
2006  356   -9.46000   -19.55000  
2006  357   -3.64000   -19.57000  
2006  358   -4.82000   -19.51000  
2006  359   -9.36000   -19.93000  
2006  360   -7.60000   -12.73000  
2006  361  -11.26000   -25.22000  
2006  362  -13.99000   -27.12000  
2006  363  -13.05000   -24.92000  
2006  364  -13.46000   -26.89000  
2006  365  -10.42000   -27.08000  
2007    1   -7.55000   -24.09000  
2007    2   -5.77000   -22.21000  
2007    3   -5.11000   -22.90000  
2007    4   -3.95000   -23.33000  
2007    5   -3.98000   -23.07000  
2007    6   -3.74000   -20.81000  
2007    7   -5.62000   -20.68000  
2007    8   -4.37000   -19.60000  
2007    9   -4.20000   -16.07000  
2007   10   -7.12000   -17.95000  
2007   11   -6.87000   -17.97000  
2007   12   -7.91000   -18.92000  
2007   13   -6.02000   -20.45000  
2007   14   -5.84000   -21.17000  
2007   15   -6.73000   -21.09000  
2007   16   -4.54000   -19.20000  
2007   17   -8.50000   -20.10000  
2007   18   -8.32000   -19.64000  
2007   19  -11.94000   -23.77000  
2007   20  -15.10000   -30.01000  
2007   21  -16.44000   -33.21000  
2007   22  -20.34000   -33.91000  
2007   23  -23.82000   -35.07000  
2007   24  -23.94000   -34.55000  
2007   25  -21.25000   -31.00000  
2007   26  -21.00000   -31.51000  
2007   27  -17.43000   -28.00000  
2007   28  -16.19000   -25.81000  
2007   29  -16.39000   -31.45000  
2007   30  -19.05000   -32.09000  
2007   31  -16.23000   -33.00000  
2007   32  -14.92000   -33.82000  
2007   33  -13.57000   -28.96000  
2007   34  -11.76000   -27.71000  
2007   35  -10.60000   -30.64000  
2007   36   -8.84000   -31.33000  
2007   37  -11.08000   -30.69000  
2007   38  -11.35000   -31.01000  
2007   39   -8.93000   -30.50000  
2007   40   -6.06000   -28.37000  
2007   41   -8.80000   -26.05000  
2007   42   -9.83000   -26.59000  
2007   43   -6.77000   -23.19000  
2007   44   -4.66000   -23.99000  
2007   45   -7.67000   -24.42000  
2007   46   -7.43000   -20.07000  
2007   47   -7.09000   -21.30000  
2007   48   -1.59000   -19.85000  
2007   49    2.52000   -20.19000  
2007   50    3.52000   -15.96000  
2007   51    4.49000   -12.77000  
2007   52    8.72000   -12.17000  
2007   53    3.27000   -10.10000  
2007   54    1.56000    -7.21000  
2007   55    1.33000   -16.43000  
2007   56   -0.78000   -17.14000  
2007   57    2.02000   -17.67000  
2007   58    4.58000   -11.45000  
2007   59    8.22000    -9.92000  
2007   60    6.93000   -12.74000  
2007   61    9.03000   -12.61000  
2007   62    8.34000   -10.98000  
2007   63   10.63000   -10.45000  
2007   64    8.82000    -3.98000  
2007   65    7.97000    -6.52000  
2007   66   11.08000    -8.31000  
2007   67   12.41000    -8.30000  
2007   68   14.72000    -4.19000  
2007   69   13.97000    -5.10000  
2007   70   12.92000    -5.47000  
2007   71    2.55000    -7.67000  
2007   72   16.05000    -8.09000  
2007   73    8.70000    -7.33000  
2007   74   16.01000    -7.66000  
2007   75   19.58000    -2.90000  
2007   76   18.79000    -1.34000  
2007   77   10.95000    -2.34000  
2007   78   10.13000    -2.50000  
2007   79   10.25000    -7.95000  
2007   80   11.82000    -8.30000  
2007   81   11.06000    -9.64000  
2007   82   15.34000    -9.55000  
2007   83   16.54000    -5.13000  
2007   84   18.18000    -2.09000  
2007   85   13.08000    -1.18000  
2007   86    3.42000    -3.69000  
2007   87    9.56000    -3.98000  
2007   88    9.14000    -2.81000  
2007   89    5.69000    -4.94000  
2007   90    5.55000    -7.78000  
2007   91    9.91000   -10.25000  
2007   92   12.77000    -8.23000  
2007   93   14.32000    -5.33000  
2007   94   16.27000    -4.86000  
2007   95   18.99000    -1.08000  
2007   96   20.90000    -0.25000  
2007   97   16.90000     1.75000  
2007   98   19.51000     1.27000  