166155tmp.tem: Temperature data - file written by SWAT+ editor 2025-11-04 13:23:50.617922
nbyr     tstep       lat       lon      elev
  14         0    41.281    98.531  1287.000
2005    1   -6.02000   -23.37000  
2005    2   -3.13000   -21.73000  
2005    3   -3.52000   -21.24000  
2005    4   -3.08000   -21.15000  
2005    5   -1.88000   -21.05000  
2005    6   -1.71000   -17.85000  
2005    7   -3.30000   -17.66000  
2005    8   -3.25000   -17.63000  
2005    9   -3.42000   -14.04000  
2005   10   -5.36000   -15.76000  
2005   11   -5.41000   -15.80000  
2005   12   -6.44000   -17.82000  
2005   13   -5.29000   -19.15000  
2005   14   -5.19000   -19.92000  
2005   15   -6.64000   -19.95000  
2005   16   -3.84000   -18.69000  
2005   17   -7.85000   -19.06000  
2005   18   -7.70000   -18.46000  
2005   19   -9.69000   -20.74000  
2005   20  -13.50000   -28.17000  
2005   21  -13.97000   -33.54000  
2005   22  -18.47000   -33.24000  
2005   23  -21.22000   -31.73000  
2005   24  -22.19000   -31.42000  
2005   25  -19.02000   -29.08000  
2005   26  -17.58000   -29.92000  
2005   27  -14.84000   -28.31000  
2005   28  -13.89000   -26.76000  
2005   29  -13.74000   -30.01000  
2005   30  -15.51000   -31.23000  
2005   31  -13.27000   -31.42000  
2005   32  -11.81000   -31.80000  
2005   33   -9.31000   -25.22000  
2005   34   -9.72000   -24.70000  
2005   35   -8.35000   -28.44000  
2005   36   -9.19000   -28.56000  
2005   37  -11.77000   -32.07000  
2005   38   -9.05000   -32.33000  
2005   39   -7.46000   -30.80000  
2005   40   -3.43000   -26.77000  
2005   41   -7.55000   -27.01000  
2005   42   -8.33000   -27.15000  
2005   43   -4.72000   -23.70000  
2005   44   -3.26000   -21.63000  
2005   45   -5.84000   -22.27000  
2005   46   -5.75000   -18.67000  
2005   47   -5.24000   -19.03000  
2005   48    0.09000   -18.00000  
2005   49    4.27000   -19.00000  
2005   50    6.11000   -14.88000  
2005   51    5.04000   -10.05000  
2005   52    7.49000    -9.81000  
2005   53    1.45000    -9.73000  
2005   54    1.23000    -6.63000  
2005   55    2.15000   -15.78000  
2005   56    0.76000   -16.35000  
2005   57    3.39000   -14.63000  
2005   58    6.39000    -8.29000  
2005   59    9.42000    -6.42000  
2005   60    7.68000   -10.06000  
2005   61   10.44000   -10.10000  
2005   62    9.44000    -7.23000  
2005   63   12.00000    -6.88000  
2005   64   10.26000    -2.88000  
2005   65    7.25000    -6.06000  
2005   66   11.47000    -6.11000  
2005   67   14.67000    -5.95000  
2005   68   16.21000    -2.02000  
2005   69   15.24000    -2.46000  
2005   70   11.33000    -5.28000  
2005   71    4.15000    -5.65000  
2005   72   16.74000    -4.39000  
2005   73    9.77000    -4.01000  
2005   74   17.86000    -4.19000  
2005   75   20.74000    -0.18000  
2005   76   19.61000     0.03000  
2005   77   11.00000    -1.64000  
2005   78   11.37000    -1.52000  
2005   79   10.82000    -4.87000  
2005   80   12.60000    -5.92000  
2005   81   12.32000    -5.99000  
2005   82   16.92000    -5.14000  
2005   83   17.88000    -3.41000  
2005   84   19.72000    -0.00000  
2005   85   13.49000    -1.05000  
2005   86    5.41000    -2.00000  
2005   87   10.52000    -2.16000  
2005   88    8.96000    -1.07000  
2005   89    6.73000    -3.49000  
2005   90    6.53000    -5.48000  
2005   91   11.45000    -6.83000  
2005   92   14.39000    -5.02000  
2005   93   16.20000    -3.05000  
2005   94   18.09000    -2.51000  
2005   95   20.35000     1.18000  
2005   96   22.10000     1.96000  
2005   97   18.98000     3.32000  
2005   98   20.98000     3.19000  
2005   99   14.96000     1.88000  
2005  100   12.69000     2.30000  
2005  101   16.43000    -0.66000  
2005  102   16.78000     0.94000  
2005  103   19.86000     1.53000  
2005  104   22.20000     2.66000  
2005  105   26.02000     4.34000  
2005  106   25.03000     6.03000  
2005  107   27.01000     7.95000  
2005  108   22.72000    -1.04000  
2005  109   10.39000    -2.94000  
2005  110    6.65000    -2.12000  
2005  111   10.10000    -3.28000  
2005  112   13.12000    -2.67000  
2005  113   20.06000    -2.87000  
2005  114   23.22000     0.69000  
2005  115   25.08000     4.59000  
2005  116   24.19000     6.49000  
2005  117   27.18000    10.46000  
2005  118   27.53000     7.00000  
2005  119   17.56000     5.55000  
2005  120   27.05000     6.23000  
2005  121   16.19000     4.24000  
2005  122   10.78000    -0.83000  
2005  123   20.73000     2.40000  
2005  124   24.12000     7.69000  
2005  125   28.12000    10.11000  
2005  126   21.83000    10.74000  
2005  127   22.02000     9.99000  
2005  128   16.87000     2.77000  
2005  129   20.87000     3.81000  
2005  130   24.83000     5.79000  
2005  131   23.81000     6.21000  
2005  132   25.61000     7.27000  
2005  133   29.30000    11.35000  
2005  134   32.23000    12.28000  
2005  135   32.43000    16.07000  
2005  136   29.11000    14.08000  
2005  137   26.58000    10.53000  
2005  138   25.02000     8.20000  
2005  139   28.45000    11.60000  
2005  140   26.47000    13.93000  
2005  141   27.48000    11.56000  
2005  142   28.55000    10.90000  
2005  143   30.45000    12.85000  
2005  144   33.05000    14.48000  
2005  145   32.44000    13.57000  
2005  146   24.95000     8.25000  
2005  147   29.21000    12.74000  
2005  148   25.46000     9.87000  
2005  149   25.83000     8.14000  
2005  150   29.31000    13.44000  
2005  151   31.81000    16.36000  
2005  152   31.14000    13.66000  
2005  153   31.09000    14.15000  
2005  154   34.16000    17.78000  
2005  155   30.92000    18.60000  
2005  156   25.84000    11.31000  
2005  157   28.42000    16.14000  
2005  158   33.14000    16.48000  
2005  159   34.73000    16.35000  
2005  160   36.00000    20.12000  
2005  161   34.33000    18.21000  
2005  162   36.69000    16.90000  
2005  163   26.10000    12.90000  
2005  164   27.56000    11.10000  
2005  165   28.51000    11.41000  
2005  166   32.04000    14.17000  
2005  167   29.47000    15.49000  
2005  168   30.21000    14.59000  
2005  169   28.93000    15.63000  
2005  170   25.30000    10.69000  
2005  171   29.62000    16.03000  
2005  172   22.63000    12.03000  
2005  173   28.63000    10.79000  
2005  174   30.92000    15.84000  
2005  175   33.05000    18.47000  
2005  176   34.31000    20.89000  
2005  177   34.26000    18.36000  
2005  178   29.46000    17.98000  
2005  179   27.53000    14.90000  
2005  180   31.12000    16.21000  
2005  181   34.36000    18.21000  
2005  182   35.44000    21.78000  
2005  183   34.53000    22.58000  
2005  184   29.44000    13.89000  
2005  185   34.53000    15.36000  
2005  186   34.99000    17.13000  
2005  187   34.33000    17.57000  
2005  188   34.54000    21.52000  
2005  189   31.64000    19.86000  
2005  190   24.68000    14.65000  
2005  191   29.66000    15.61000  
2005  192   31.74000    15.72000  
2005  193   30.04000    15.45000  
2005  194   29.42000    14.76000  
2005  195   33.16000    16.20000  
2005  196   35.15000    19.90000  
2005  197   26.55000    15.35000  
2005  198   30.21000    15.22000  
2005  199   29.94000    15.81000  
2005  200   33.35000    19.05000  
2005  201   34.01000    21.55000  
2005  202   32.34000    18.57000  
2005  203   35.13000    21.69000  
2005  204   33.58000    22.07000  
2005  205   33.36000    21.55000  
2005  206   31.83000    20.10000  
2005  207   34.02000    20.73000  
2005  208   30.32000    17.59000  
2005  209   31.42000    19.89000  
2005  210   25.60000    17.73000  
2005  211   26.97000    18.12000  
2005  212   32.46000    18.25000  
2005  213   34.77000    18.29000  
2005  214   36.34000    19.71000  
2005  215   38.01000    22.21000  
2005  216   38.74000    19.85000  
2005  217   36.58000    20.67000  
2005  218   30.35000    18.80000  
2005  219   25.00000    13.52000  
2005  220   28.42000    11.75000  
2005  221   28.64000    14.15000  
2005  222   30.35000    15.84000  
2005  223   31.98000    13.89000  
2005  224   31.44000    14.85000  
2005  225   32.33000    15.40000  
2005  226   32.33000    17.92000  
2005  227   28.60000    13.21000  
2005  228   31.34000    15.47000  
2005  229   32.70000    17.08000  
2005  230   33.55000    19.42000  
2005  231   27.87000    13.69000  
2005  232   22.23000    11.28000  
2005  233   28.32000    10.99000  
2005  234   29.59000    13.68000  
2005  235   30.88000    12.39000  
2005  236   30.22000    13.61000  
2005  237   27.44000    10.52000  
2005  238   28.94000    11.22000  
2005  239   31.48000    13.71000  
2005  240   17.04000    10.15000  
2005  241   23.22000     5.68000  
2005  242   26.59000     8.37000  
2005  243   27.97000    10.54000  
2005  244   24.66000    11.35000  
2005  245   28.80000    12.20000  
2005  246   27.85000     8.62000  
2005  247   27.53000    10.88000  
2005  248   27.19000    13.74000  
2005  249   26.43000    13.15000  
2005  250   22.55000     7.10000  
2005  251   22.35000     7.64000  
2005  252   22.79000     4.92000  
2005  253   27.56000     6.74000  
2005  254   29.06000     9.85000  
2005  255   29.06000     9.46000  
2005  256   29.20000     8.85000  
2005  257   28.51000     9.42000  
2005  258   28.70000     9.38000  
2005  259   30.22000     9.15000  
2005  260   29.20000    10.99000  
2005  261   30.02000    13.15000  
2005  262   29.17000    14.86000  
2005  263   25.60000    11.06000  
2005  264   19.64000    11.53000  
2005  265   21.42000     8.69000  
2005  266   17.58000     9.00000  
2005  267   15.78000     7.83000  
2005  268   15.96000     8.77000  
2005  269   14.45000     4.85000  
2005  270   22.02000     5.29000  
2005  271   27.61000     7.73000  
2005  272   26.87000     7.70000  
2005  273   28.79000     7.76000  
2005  274   28.73000    10.23000  
2005  275   25.86000    10.11000  
2005  276   12.68000     7.29000  
2005  277   19.87000     5.05000  
2005  278   20.68000     5.03000  
2005  279   19.75000     6.41000  
2005  280   18.02000     2.58000  
2005  281   20.51000     2.43000  
2005  282   15.71000     0.60000  
2005  283   17.76000     0.49000  
2005  284   19.78000     3.25000  
2005  285   21.84000     5.20000  
2005  286   19.36000     4.19000  
2005  287   22.03000     4.52000  
2005  288   18.84000     3.35000  
2005  289   19.12000     2.95000  
2005  290   18.52000     1.47000  
2005  291   19.74000     1.77000  
2005  292   22.43000     1.54000  
2005  293   21.19000     0.70000  
2005  294    7.51000    -2.88000  
2005  295    8.46000    -8.18000  
2005  296    9.90000    -8.22000  
2005  297   14.34000    -6.51000  
2005  298   12.91000    -4.45000  
2005  299   13.21000    -5.88000  
2005  300   11.18000    -6.28000  
2005  301   12.37000    -5.37000  
2005  302   13.30000    -5.75000  
2005  303   12.51000    -5.41000  
2005  304   14.46000    -3.84000  
2005  305   14.20000    -3.81000  
2005  306   15.34000    -4.83000  
2005  307   13.36000    -5.13000  
2005  308   11.90000    -3.48000  
2005  309   12.86000    -2.19000  
2005  310   13.89000    -3.77000  
2005  311   11.38000    -3.29000  
2005  312   13.37000    -2.62000  
2005  313   10.86000    -2.94000  
2005  314    8.30000    -2.85000  
2005  315    7.43000    -2.59000  
2005  316    3.17000    -9.80000  
2005  317    5.39000    -9.58000  
2005  318    4.21000    -8.82000  
2005  319    5.84000    -8.87000  
2005  320    2.40000    -9.15000  
2005  321    1.69000   -12.86000  
2005  322    2.74000   -13.06000  
2005  323    4.45000   -12.26000  
2005  324    4.24000   -12.45000  
2005  325    4.33000   -12.06000  
2005  326    4.45000    -8.42000  
2005  327    4.92000   -13.63000  
2005  328    5.56000   -13.59000  
2005  329    2.67000   -11.45000  
2005  330    3.65000   -12.86000  
2005  331    4.77000   -12.84000  
2005  332    7.59000    -8.83000  
2005  333    8.07000    -8.74000  
2005  334    5.07000    -5.91000  
2005  335    7.44000    -6.17000  
2005  336    0.26000   -12.73000  
2005  337  -10.17000   -23.24000  
2005  338  -10.24000   -23.36000  
2005  339   -6.03000   -23.02000  
2005  340   -0.59000    -9.09000  
2005  341    1.52000    -6.36000  
2005  342    8.14000    -3.79000  
2005  343    6.69000   -11.52000  
2005  344    5.19000   -12.64000  
2005  345    3.56000   -12.06000  
2005  346    0.59000   -11.13000  
2005  347   -1.26000   -13.20000  
2005  348    2.65000   -12.93000  
2005  349    3.71000   -10.65000  
2005  350    0.76000   -14.77000  
2005  351   -0.19000   -15.47000  
2005  352    2.98000   -12.11000  
2005  353   -0.97000   -10.45000  
2005  354   -2.69000   -18.76000  
2005  355  -13.63000   -19.55000  
2005  356   -8.69000   -19.22000  
2005  357   -2.31000   -18.73000  
2005  358   -4.54000   -18.80000  
2005  359   -8.70000   -18.89000  
2005  360   -6.11000   -12.11000  
2005  361  -11.03000   -22.05000  
2005  362  -12.09000   -24.55000  
2005  363  -12.04000   -25.59000  
2005  364  -13.39000   -26.22000  
2005  365  -10.86000   -26.24000  
2006    1   -6.02000   -23.37000  
2006    2   -3.13000   -21.73000  
2006    3   -3.52000   -21.24000  
2006    4   -3.08000   -21.15000  
2006    5   -1.88000   -21.05000  
2006    6   -1.71000   -17.85000  
2006    7   -3.30000   -17.66000  
2006    8   -3.25000   -17.63000  
2006    9   -3.42000   -14.04000  
2006   10   -5.36000   -15.76000  
2006   11   -5.41000   -15.80000  
2006   12   -6.44000   -17.82000  
2006   13   -5.29000   -19.15000  
2006   14   -5.19000   -19.92000  
2006   15   -6.64000   -19.95000  
2006   16   -3.84000   -18.69000  
2006   17   -7.85000   -19.06000  
2006   18   -7.70000   -18.46000  
2006   19   -9.69000   -20.74000  
2006   20  -13.50000   -28.17000  
2006   21  -13.97000   -33.54000  
2006   22  -18.47000   -33.24000  
2006   23  -21.22000   -31.73000  
2006   24  -22.19000   -31.42000  
2006   25  -19.02000   -29.08000  
2006   26  -17.58000   -29.92000  
2006   27  -14.84000   -28.31000  
2006   28  -13.89000   -26.76000  
2006   29  -13.74000   -30.01000  
2006   30  -15.51000   -31.23000  
2006   31  -13.27000   -31.42000  
2006   32  -11.81000   -31.80000  
2006   33   -9.31000   -25.22000  
2006   34   -9.72000   -24.70000  
2006   35   -8.35000   -28.44000  
2006   36   -9.19000   -28.56000  
2006   37  -11.77000   -32.07000  
2006   38   -9.05000   -32.33000  
2006   39   -7.46000   -30.80000  
2006   40   -3.43000   -26.77000  
2006   41   -7.55000   -27.01000  
2006   42   -8.33000   -27.15000  
2006   43   -4.72000   -23.70000  
2006   44   -3.26000   -21.63000  
2006   45   -5.84000   -22.27000  
2006   46   -5.75000   -18.67000  
2006   47   -5.24000   -19.03000  
2006   48    0.09000   -18.00000  
2006   49    4.27000   -19.00000  
2006   50    6.11000   -14.88000  
2006   51    5.04000   -10.05000  
2006   52    7.49000    -9.81000  
2006   53    1.45000    -9.73000  
2006   54    1.23000    -6.63000  
2006   55    2.15000   -15.78000  
2006   56    0.76000   -16.35000  
2006   57    3.39000   -14.63000  
2006   58    6.39000    -8.29000  
2006   59    9.42000    -6.42000  
2006   60    7.68000   -10.06000  
2006   61   10.44000   -10.10000  
2006   62    9.44000    -7.23000  
2006   63   12.00000    -6.88000  
2006   64   10.26000    -2.88000  
2006   65    7.25000    -6.06000  
2006   66   11.47000    -6.11000  
2006   67   14.67000    -5.95000  
2006   68   16.21000    -2.02000  
2006   69   15.24000    -2.46000  
2006   70   11.33000    -5.28000  
2006   71    4.15000    -5.65000  
2006   72   16.74000    -4.39000  
2006   73    9.77000    -4.01000  
2006   74   17.86000    -4.19000  
2006   75   20.74000    -0.18000  
2006   76   19.61000     0.03000  
2006   77   11.00000    -1.64000  
2006   78   11.37000    -1.52000  
2006   79   10.82000    -4.87000  
2006   80   12.60000    -5.92000  
2006   81   12.32000    -5.99000  
2006   82   16.92000    -5.14000  
2006   83   17.88000    -3.41000  
2006   84   19.72000    -0.00000  
2006   85   13.49000    -1.05000  
2006   86    5.41000    -2.00000  
2006   87   10.52000    -2.16000  
2006   88    8.96000    -1.07000  
2006   89    6.73000    -3.49000  
2006   90    6.53000    -5.48000  
2006   91   11.45000    -6.83000  
2006   92   14.39000    -5.02000  
2006   93   16.20000    -3.05000  
2006   94   18.09000    -2.51000  
2006   95   20.35000     1.18000  
2006   96   22.10000     1.96000  
2006   97   18.98000     3.32000  
2006   98   20.98000     3.19000  
2006   99   14.96000     1.88000  
2006  100   12.69000     2.30000  
2006  101   16.43000    -0.66000  
2006  102   16.78000     0.94000  
2006  103   19.86000     1.53000  
2006  104   22.20000     2.66000  
2006  105   26.02000     4.34000  
2006  106   25.03000     6.03000  
2006  107   27.01000     7.95000  
2006  108   22.72000    -1.04000  
2006  109   10.39000    -2.94000  
2006  110    6.65000    -2.12000  
2006  111   10.10000    -3.28000  
2006  112   13.12000    -2.67000  
2006  113   20.06000    -2.87000  
2006  114   23.22000     0.69000  
2006  115   25.08000     4.59000  
2006  116   24.19000     6.49000  
2006  117   27.18000    10.46000  
2006  118   27.53000     7.00000  
2006  119   17.56000     5.55000  
2006  120   27.05000     6.23000  
2006  121   16.19000     4.24000  
2006  122   10.78000    -0.83000  
2006  123   20.73000     2.40000  
2006  124   24.12000     7.69000  
2006  125   28.12000    10.11000  
2006  126   21.83000    10.74000  
2006  127   22.02000     9.99000  
2006  128   16.87000     2.77000  
2006  129   20.87000     3.81000  
2006  130   24.83000     5.79000  
2006  131   23.81000     6.21000  
2006  132   25.61000     7.27000  
2006  133   29.30000    11.35000  
2006  134   32.23000    12.28000  
2006  135   32.43000    16.07000  
2006  136   29.11000    14.08000  
2006  137   26.58000    10.53000  
2006  138   25.02000     8.20000  
2006  139   28.45000    11.60000  
2006  140   26.47000    13.93000  
2006  141   27.48000    11.56000  
2006  142   28.55000    10.90000  
2006  143   30.45000    12.85000  
2006  144   33.05000    14.48000  
2006  145   32.44000    13.57000  
2006  146   24.95000     8.25000  
2006  147   29.21000    12.74000  
2006  148   25.46000     9.87000  
2006  149   25.83000     8.14000  
2006  150   29.31000    13.44000  
2006  151   31.81000    16.36000  
2006  152   31.14000    13.66000  
2006  153   31.09000    14.15000  
2006  154   34.16000    17.78000  
2006  155   30.92000    18.60000  
2006  156   25.84000    11.31000  
2006  157   28.42000    16.14000  
2006  158   33.14000    16.48000  
2006  159   34.73000    16.35000  
2006  160   36.00000    20.12000  
2006  161   34.33000    18.21000  
2006  162   36.69000    16.90000  
2006  163   26.10000    12.90000  
2006  164   27.56000    11.10000  
2006  165   28.51000    11.41000  
2006  166   32.04000    14.17000  
2006  167   29.47000    15.49000  
2006  168   30.21000    14.59000  
2006  169   28.93000    15.63000  
2006  170   25.30000    10.69000  
2006  171   29.62000    16.03000  
2006  172   22.63000    12.03000  
2006  173   28.63000    10.79000  
2006  174   30.92000    15.84000  
2006  175   33.05000    18.47000  
2006  176   34.31000    20.89000  
2006  177   34.26000    18.36000  
2006  178   29.46000    17.98000  
2006  179   27.53000    14.90000  
2006  180   31.12000    16.21000  
2006  181   34.36000    18.21000  
2006  182   35.44000    21.78000  
2006  183   34.53000    22.58000  
2006  184   29.44000    13.89000  
2006  185   34.53000    15.36000  
2006  186   34.99000    17.13000  
2006  187   34.33000    17.57000  
2006  188   34.54000    21.52000  
2006  189   31.64000    19.86000  
2006  190   24.68000    14.65000  
2006  191   29.66000    15.61000  
2006  192   31.74000    15.72000  
2006  193   30.04000    15.45000  
2006  194   29.42000    14.76000  
2006  195   33.16000    16.20000  
2006  196   35.15000    19.90000  
2006  197   26.55000    15.35000  
2006  198   30.21000    15.22000  
2006  199   29.94000    15.81000  
2006  200   33.35000    19.05000  
2006  201   34.01000    21.55000  
2006  202   32.34000    18.57000  
2006  203   35.13000    21.69000  
2006  204   33.58000    22.07000  
2006  205   33.36000    21.55000  
2006  206   31.83000    20.10000  
2006  207   34.02000    20.73000  
2006  208   30.32000    17.59000  
2006  209   31.42000    19.89000  
2006  210   25.60000    17.73000  
2006  211   26.97000    18.12000  
2006  212   32.46000    18.25000  
2006  213   34.77000    18.29000  
2006  214   36.34000    19.71000  
2006  215   38.01000    22.21000  
2006  216   38.74000    19.85000  
2006  217   36.58000    20.67000  
2006  218   30.35000    18.80000  
2006  219   25.00000    13.52000  
2006  220   28.42000    11.75000  
2006  221   28.64000    14.15000  
2006  222   30.35000    15.84000  
2006  223   31.98000    13.89000  
2006  224   31.44000    14.85000  
2006  225   32.33000    15.40000  
2006  226   32.33000    17.92000  
2006  227   28.60000    13.21000  
2006  228   31.34000    15.47000  
2006  229   32.70000    17.08000  
2006  230   33.55000    19.42000  
2006  231   27.87000    13.69000  
2006  232   22.23000    11.28000  
2006  233   28.32000    10.99000  
2006  234   29.59000    13.68000  
2006  235   30.88000    12.39000  
2006  236   30.22000    13.61000  
2006  237   27.44000    10.52000  
2006  238   28.94000    11.22000  
2006  239   31.48000    13.71000  
2006  240   17.04000    10.15000  
2006  241   23.22000     5.68000  
2006  242   26.59000     8.37000  
2006  243   27.97000    10.54000  
2006  244   24.66000    11.35000  
2006  245   28.80000    12.20000  
2006  246   27.85000     8.62000  
2006  247   27.53000    10.88000  
2006  248   27.19000    13.74000  
2006  249   26.43000    13.15000  
2006  250   22.55000     7.10000  
2006  251   22.35000     7.64000  
2006  252   22.79000     4.92000  
2006  253   27.56000     6.74000  
2006  254   29.06000     9.85000  
2006  255   29.06000     9.46000  
2006  256   29.20000     8.85000  
2006  257   28.51000     9.42000  
2006  258   28.70000     9.38000  
2006  259   30.22000     9.15000  
2006  260   29.20000    10.99000  
2006  261   30.02000    13.15000  
2006  262   29.17000    14.86000  
2006  263   25.60000    11.06000  
2006  264   19.64000    11.53000  
2006  265   21.42000     8.69000  
2006  266   17.58000     9.00000  
2006  267   15.78000     7.83000  
2006  268   15.96000     8.77000  
2006  269   14.45000     4.85000  
2006  270   22.02000     5.29000  
2006  271   27.61000     7.73000  
2006  272   26.87000     7.70000  
2006  273   28.79000     7.76000  
2006  274   28.73000    10.23000  
2006  275   25.86000    10.11000  
2006  276   12.68000     7.29000  
2006  277   19.87000     5.05000  
2006  278   20.68000     5.03000  
2006  279   19.75000     6.41000  
2006  280   18.02000     2.58000  
2006  281   20.51000     2.43000  
2006  282   15.71000     0.60000  
2006  283   17.76000     0.49000  
2006  284   19.78000     3.25000  
2006  285   21.84000     5.20000  
2006  286   19.36000     4.19000  
2006  287   22.03000     4.52000  
2006  288   18.84000     3.35000  
2006  289   19.12000     2.95000  
2006  290   18.52000     1.47000  
2006  291   19.74000     1.77000  
2006  292   22.43000     1.54000  
2006  293   21.19000     0.70000  
2006  294    7.51000    -2.88000  
2006  295    8.46000    -8.18000  
2006  296    9.90000    -8.22000  
2006  297   14.34000    -6.51000  
2006  298   12.91000    -4.45000  
2006  299   13.21000    -5.88000  
2006  300   11.18000    -6.28000  
2006  301   12.37000    -5.37000  
2006  302   13.30000    -5.75000  
2006  303   12.51000    -5.41000  
2006  304   14.46000    -3.84000  
2006  305   14.20000    -3.81000  
2006  306   15.34000    -4.83000  
2006  307   13.36000    -5.13000  
2006  308   11.90000    -3.48000  
2006  309   12.86000    -2.19000  
2006  310   13.89000    -3.77000  
2006  311   11.38000    -3.29000  
2006  312   13.37000    -2.62000  
2006  313   10.86000    -2.94000  
2006  314    8.30000    -2.85000  
2006  315    7.43000    -2.59000  
2006  316    3.17000    -9.80000  
2006  317    5.39000    -9.58000  
2006  318    4.21000    -8.82000  
2006  319    5.84000    -8.87000  
2006  320    2.40000    -9.15000  
2006  321    1.69000   -12.86000  
2006  322    2.74000   -13.06000  
2006  323    4.45000   -12.26000  
2006  324    4.24000   -12.45000  
2006  325    4.33000   -12.06000  
2006  326    4.45000    -8.42000  
2006  327    4.92000   -13.63000  
2006  328    5.56000   -13.59000  
2006  329    2.67000   -11.45000  
2006  330    3.65000   -12.86000  
2006  331    4.77000   -12.84000  
2006  332    7.59000    -8.83000  
2006  333    8.07000    -8.74000  
2006  334    5.07000    -5.91000  
2006  335    7.44000    -6.17000  
2006  336    0.26000   -12.73000  
2006  337  -10.17000   -23.24000  
2006  338  -10.24000   -23.36000  
2006  339   -6.03000   -23.02000  
2006  340   -0.59000    -9.09000  
2006  341    1.52000    -6.36000  
2006  342    8.14000    -3.79000  
2006  343    6.69000   -11.52000  
2006  344    5.19000   -12.64000  
2006  345    3.56000   -12.06000  
2006  346    0.59000   -11.13000  
2006  347   -1.26000   -13.20000  
2006  348    2.65000   -12.93000  
2006  349    3.71000   -10.65000  
2006  350    0.76000   -14.77000  
2006  351   -0.19000   -15.47000  
2006  352    2.98000   -12.11000  
2006  353   -0.97000   -10.45000  
2006  354   -2.69000   -18.76000  
2006  355  -13.63000   -19.55000  
2006  356   -8.69000   -19.22000  
2006  357   -2.31000   -18.73000  
2006  358   -4.54000   -18.80000  
2006  359   -8.70000   -18.89000  
2006  360   -6.11000   -12.11000  
2006  361  -11.03000   -22.05000  
2006  362  -12.09000   -24.55000  
2006  363  -12.04000   -25.59000  
2006  364  -13.39000   -26.22000  
2006  365  -10.86000   -26.24000  
2007    1   -6.02000   -23.37000  
2007    2   -3.13000   -21.73000  
2007    3   -3.52000   -21.24000  
2007    4   -3.08000   -21.15000  
2007    5   -1.88000   -21.05000  
2007    6   -1.71000   -17.85000  
2007    7   -3.30000   -17.66000  
2007    8   -3.25000   -17.63000  
2007    9   -3.42000   -14.04000  
2007   10   -5.36000   -15.76000  
2007   11   -5.41000   -15.80000  
2007   12   -6.44000   -17.82000  
2007   13   -5.29000   -19.15000  
2007   14   -5.19000   -19.92000  
2007   15   -6.64000   -19.95000  
2007   16   -3.84000   -18.69000  
2007   17   -7.85000   -19.06000  
2007   18   -7.70000   -18.46000  
2007   19   -9.69000   -20.74000  
2007   20  -13.50000   -28.17000  
2007   21  -13.97000   -33.54000  
2007   22  -18.47000   -33.24000  
2007   23  -21.22000   -31.73000  
2007   24  -22.19000   -31.42000  
2007   25  -19.02000   -29.08000  
2007   26  -17.58000   -29.92000  
2007   27  -14.84000   -28.31000  
2007   28  -13.89000   -26.76000  
2007   29  -13.74000   -30.01000  
2007   30  -15.51000   -31.23000  
2007   31  -13.27000   -31.42000  
2007   32  -11.81000   -31.80000  
2007   33   -9.31000   -25.22000  
2007   34   -9.72000   -24.70000  
2007   35   -8.35000   -28.44000  
2007   36   -9.19000   -28.56000  
2007   37  -11.77000   -32.07000  
2007   38   -9.05000   -32.33000  
2007   39   -7.46000   -30.80000  
2007   40   -3.43000   -26.77000  
2007   41   -7.55000   -27.01000  
2007   42   -8.33000   -27.15000  
2007   43   -4.72000   -23.70000  
2007   44   -3.26000   -21.63000  
2007   45   -5.84000   -22.27000  
2007   46   -5.75000   -18.67000  
2007   47   -5.24000   -19.03000  
2007   48    0.09000   -18.00000  
2007   49    4.27000   -19.00000  
2007   50    6.11000   -14.88000  
2007   51    5.04000   -10.05000  
2007   52    7.49000    -9.81000  
2007   53    1.45000    -9.73000  
2007   54    1.23000    -6.63000  
2007   55    2.15000   -15.78000  
2007   56    0.76000   -16.35000  
2007   57    3.39000   -14.63000  
2007   58    6.39000    -8.29000  
2007   59    9.42000    -6.42000  
2007   60    7.68000   -10.06000  
2007   61   10.44000   -10.10000  
2007   62    9.44000    -7.23000  
2007   63   12.00000    -6.88000  
2007   64   10.26000    -2.88000  
2007   65    7.25000    -6.06000  
2007   66   11.47000    -6.11000  
2007   67   14.67000    -5.95000  
2007   68   16.21000    -2.02000  
2007   69   15.24000    -2.46000  
2007   70   11.33000    -5.28000  
2007   71    4.15000    -5.65000  
2007   72   16.74000    -4.39000  
2007   73    9.77000    -4.01000  
2007   74   17.86000    -4.19000  
2007   75   20.74000    -0.18000  
2007   76   19.61000     0.03000  
2007   77   11.00000    -1.64000  
2007   78   11.37000    -1.52000  
2007   79   10.82000    -4.87000  
2007   80   12.60000    -5.92000  
2007   81   12.32000    -5.99000  
2007   82   16.92000    -5.14000  
2007   83   17.88000    -3.41000  
2007   84   19.72000    -0.00000  
2007   85   13.49000    -1.05000  
2007   86    5.41000    -2.00000  
2007   87   10.52000    -2.16000  
2007   88    8.96000    -1.07000  
2007   89    6.73000    -3.49000  
2007   90    6.53000    -5.48000  
2007   91   11.45000    -6.83000  
2007   92   14.39000    -5.02000  
2007   93   16.20000    -3.05000  
2007   94   18.09000    -2.51000  
2007   95   20.35000     1.18000  
2007   96   22.10000     1.96000  
2007   97   18.98000     3.32000  
2007   98   20.98000     3.19000  