168159tmp.tem: Temperature data - file written by SWAT+ editor 2025-11-04 13:23:50.720152
nbyr     tstep       lat       lon      elev
  14         0    41.781    99.531  1015.000
2005    1   -6.22000   -24.08000  
2005    2   -4.05000   -22.92000  
2005    3   -4.65000   -22.17000  
2005    4   -4.90000   -20.46000  
2005    5   -2.46000   -19.83000  
2005    6   -1.38000   -15.62000  
2005    7   -2.40000   -15.29000  
2005    8   -3.23000   -15.47000  
2005    9   -4.00000   -15.39000  
2005   10   -4.09000   -15.19000  
2005   11   -5.05000   -15.86000  
2005   12   -6.74000   -17.51000  
2005   13   -5.82000   -20.04000  
2005   14   -5.57000   -20.02000  
2005   15   -7.90000   -19.73000  
2005   16   -5.64000   -18.27000  
2005   17   -8.95000   -18.52000  
2005   18   -8.12000   -18.99000  
2005   19   -7.75000   -16.72000  
2005   20  -12.34000   -26.47000  
2005   21  -13.44000   -33.23000  
2005   22  -18.84000   -33.06000  
2005   23  -19.76000   -30.28000  
2005   24  -21.00000   -30.53000  
2005   25  -18.41000   -28.15000  
2005   26  -15.30000   -28.41000  
2005   27  -13.13000   -27.08000  
2005   28  -12.52000   -26.02000  
2005   29  -12.05000   -27.52000  
2005   30  -14.31000   -28.53000  
2005   31  -14.23000   -28.31000  
2005   32  -12.25000   -28.00000  
2005   33   -6.56000   -25.61000  
2005   34  -10.61000   -24.56000  
2005   35   -8.22000   -26.68000  
2005   36  -10.86000   -26.36000  
2005   37  -12.70000   -26.61000  
2005   38   -9.00000   -28.42000  
2005   39   -6.92000   -28.76000  
2005   40   -2.77000   -22.26000  
2005   41   -8.56000   -24.30000  
2005   42   -8.18000   -24.19000  
2005   43   -5.18000   -23.43000  
2005   44   -2.68000   -20.09000  
2005   45   -6.09000   -20.39000  
2005   46   -5.21000   -18.60000  
2005   47   -3.65000   -17.25000  
2005   48    1.14000   -15.18000  
2005   49    4.47000   -14.41000  
2005   50    8.57000   -12.08000  
2005   51    6.33000    -7.22000  
2005   52    3.74000    -9.34000  
2005   53    0.55000    -9.03000  
2005   54   -0.02000    -6.27000  
2005   55    1.91000   -14.38000  
2005   56    1.15000   -14.43000  
2005   57    3.70000   -13.45000  
2005   58    6.84000    -6.75000  
2005   59   10.46000    -5.11000  
2005   60    6.70000    -7.21000  
2005   61   10.04000    -6.96000  
2005   62   10.54000    -5.44000  
2005   63   12.71000    -3.89000  
2005   64   10.92000    -2.39000  
2005   65    6.82000    -4.69000  
2005   66   10.99000    -4.82000  
2005   67   16.31000    -3.49000  
2005   68   16.92000    -1.73000  
2005   69   16.08000     1.44000  
2005   70   11.49000    -4.39000  
2005   71    5.21000    -4.75000  
2005   72   15.70000    -3.23000  
2005   73    9.78000    -3.93000  
2005   74   17.35000    -3.48000  
2005   75   20.64000     0.42000  
2005   76   19.27000    -0.01000  
2005   77   10.42000    -1.43000  
2005   78   11.95000    -1.13000  
2005   79   10.40000    -2.67000  
2005   80   12.78000    -4.12000  
2005   81   12.27000    -4.17000  
2005   82   17.05000    -2.91000  
2005   83   17.57000    -0.87000  
2005   84   19.47000     1.50000  
2005   85   13.99000    -0.10000  
2005   86    7.74000    -1.52000  
2005   87   10.47000    -1.38000  
2005   88    7.48000    -0.27000  
2005   89    8.96000    -2.76000  
2005   90    6.62000    -3.70000  
2005   91   11.85000    -4.78000  
2005   92   15.65000    -2.84000  
2005   93   17.32000    -1.45000  
2005   94   18.87000    -0.18000  
2005   95   20.24000     1.69000  
2005   96   22.35000     3.18000  
2005   97   19.56000     5.68000  
2005   98   22.24000     6.19000  
2005   99   14.32000     1.53000  
2005  100   14.42000     2.44000  
2005  101   17.74000     1.94000  
2005  102   18.67000     1.36000  
2005  103   21.66000     3.31000  
2005  104   25.02000     4.83000  
2005  105   27.34000     6.59000  
2005  106   26.74000     8.22000  
2005  107   28.27000     9.74000  
2005  108   23.84000     0.99000  
2005  109   11.34000    -1.71000  
2005  110    7.14000    -1.36000  
2005  111   11.18000    -1.11000  
2005  112   14.47000    -1.18000  
2005  113   20.89000     0.47000  
2005  114   24.27000     3.86000  
2005  115   26.21000     7.98000  
2005  116   26.35000    10.34000  
2005  117   29.01000    12.17000  
2005  118   29.65000     9.52000  
2005  119   17.41000     6.46000  
2005  120   26.10000     8.78000  
2005  121   16.08000     4.23000  
2005  122   11.72000     1.32000  
2005  123   19.59000     4.59000  
2005  124   23.69000     7.94000  
2005  125   28.80000    11.85000  
2005  126   22.88000    11.50000  
2005  127   23.05000    12.80000  
2005  128   16.82000     5.04000  
2005  129   21.40000     5.81000  
2005  130   25.04000     6.48000  
2005  131   23.45000     6.77000  
2005  132   26.56000     9.73000  
2005  133   32.05000    14.00000  
2005  134   34.06000    13.85000  
2005  135   33.09000    16.51000  
2005  136   29.28000    14.36000  
2005  137   27.58000    12.17000  
2005  138   26.19000     9.75000  
2005  139   29.45000    12.55000  
2005  140   27.22000    14.51000  
2005  141   28.75000    13.38000  
2005  142   30.34000    12.99000  
2005  143   32.32000    14.95000  
2005  144   34.30000    17.56000  
2005  145   34.28000    14.78000  
2005  146   25.29000     9.42000  
2005  147   31.13000    14.48000  
2005  148   26.09000     9.75000  
2005  149   26.04000     9.30000  
2005  150   30.95000    14.79000  
2005  151   32.76000    17.49000  
2005  152   31.54000    14.89000  
2005  153   31.19000    15.81000  
2005  154   34.67000    18.66000  
2005  155   31.79000    18.75000  
2005  156   25.88000    13.38000  
2005  157   30.31000    17.05000  
2005  158   34.94000    19.75000  
2005  159   36.85000    18.53000  
2005  160   37.57000    20.34000  
2005  161   35.75000    19.90000  
2005  162   38.68000    19.46000  
2005  163   26.55000    14.18000  
2005  164   30.23000    13.87000  
2005  165   29.58000    14.02000  
2005  166   33.35000    15.99000  
2005  167   30.30000    15.48000  
2005  168   31.09000    15.26000  
2005  169   32.05000    18.29000  
2005  170   26.52000    13.74000  
2005  171   31.35000    19.02000  
2005  172   23.78000    13.80000  
2005  173   29.15000    13.39000  
2005  174   32.19000    18.09000  
2005  175   34.65000    19.72000  
2005  176   35.36000    22.20000  
2005  177   35.94000    19.74000  
2005  178   30.53000    19.00000  
2005  179   28.36000    16.03000  
2005  180   32.34000    17.27000  
2005  181   36.08000    19.18000  
2005  182   36.82000    22.32000  
2005  183   36.81000    24.90000  
2005  184   30.07000    16.77000  
2005  185   35.59000    18.55000  
2005  186   36.76000    19.95000  
2005  187   35.78000    19.32000  
2005  188   35.18000    22.59000  
2005  189   31.96000    21.60000  
2005  190   29.05000    17.13000  
2005  191   30.45000    15.76000  
2005  192   32.70000    17.29000  
2005  193   32.41000    18.40000  
2005  194   27.34000    15.14000  
2005  195   33.52000    18.24000  
2005  196   36.99000    21.31000  
2005  197   30.78000    19.57000  
2005  198   30.75000    18.23000  
2005  199   30.54000    18.71000  
2005  200   34.24000    20.67000  
2005  201   35.85000    22.54000  
2005  202   35.08000    20.60000  
2005  203   37.08000    23.38000  
2005  204   34.76000    23.70000  
2005  205   34.41000    22.71000  
2005  206   36.04000    22.23000  
2005  207   34.53000    22.38000  
2005  208   31.59000    18.19000  
2005  209   31.25000    19.93000  
2005  210   27.61000    20.80000  
2005  211   29.71000    20.29000  
2005  212   35.26000    20.97000  
2005  213   36.88000    20.34000  
2005  214   38.42000    23.35000  
2005  215   39.74000    24.27000  
2005  216   40.40000    21.88000  
2005  217   38.89000    23.42000  
2005  218   32.77000    19.92000  
2005  219   26.74000    16.28000  
2005  220   27.21000    13.42000  
2005  221   29.60000    15.38000  
2005  222   31.59000    17.62000  
2005  223   33.70000    16.46000  
2005  224   33.41000    16.64000  
2005  225   34.87000    17.54000  
2005  226   34.43000    19.94000  
2005  227   30.99000    15.76000  
2005  228   33.30000    16.85000  
2005  229   34.29000    18.19000  
2005  230   35.40000    21.00000  
2005  231   30.36000    14.72000  
2005  232   22.92000    13.82000  
2005  233   29.69000    15.03000  
2005  234   31.13000    17.12000  
2005  235   32.22000    16.41000  
2005  236   31.89000    16.30000  
2005  237   27.34000    11.32000  
2005  238   28.69000    12.35000  
2005  239   32.33000    14.86000  
2005  240   19.96000    11.47000  
2005  241   22.61000     7.36000  
2005  242   27.19000    10.21000  
2005  243   28.99000    11.73000  
2005  244   27.09000    12.97000  
2005  245   29.54000    14.19000  
2005  246   28.29000    12.03000  
2005  247   27.73000    13.67000  
2005  248   28.48000    15.45000  
2005  249   27.41000    14.00000  
2005  250   24.69000     8.35000  
2005  251   22.29000     9.13000  
2005  252   22.94000     8.10000  
2005  253   28.73000    10.06000  
2005  254   30.57000    11.23000  
2005  255   31.39000    12.94000  
2005  256   30.96000    12.29000  
2005  257   29.39000    11.30000  
2005  258   30.09000    11.39000  
2005  259   31.56000    11.39000  
2005  260   29.49000    12.95000  
2005  261   31.13000    15.42000  
2005  262   30.20000    14.86000  
2005  263   27.04000    13.71000  
2005  264   22.13000    13.53000  
2005  265   22.01000     9.84000  
2005  266   18.98000    10.36000  
2005  267   18.45000    10.35000  
2005  268   18.16000    10.80000  
2005  269   16.39000     7.59000  
2005  270   22.06000     7.84000  
2005  271   28.37000     9.91000  
2005  272   27.70000     9.54000  
2005  273   29.27000    10.39000  
2005  274   30.34000    11.61000  
2005  275   27.14000    11.70000  
2005  276   13.74000     6.66000  
2005  277   18.06000     6.86000  
2005  278   19.27000     5.38000  
2005  279   20.26000     5.89000  
2005  280   17.18000     2.43000  
2005  281   20.68000     3.22000  
2005  282   15.96000     0.50000  
2005  283   18.11000     0.90000  
2005  284   19.68000     4.05000  
2005  285   22.17000     5.35000  
2005  286   19.77000     5.44000  
2005  287   22.30000     5.86000  
2005  288   19.33000     2.98000  
2005  289   19.21000     2.80000  
2005  290   17.51000     2.75000  
2005  291   20.05000     3.11000  
2005  292   23.51000     2.78000  
2005  293   21.63000     2.49000  
2005  294    7.85000    -0.11000  
2005  295    8.26000    -7.00000  
2005  296   10.07000    -6.67000  
2005  297   14.73000    -3.51000  
2005  298   13.07000    -2.78000  
2005  299   13.97000    -4.99000  
2005  300   12.36000    -5.12000  
2005  301   13.34000    -2.82000  
2005  302   13.47000    -3.28000  
2005  303   13.42000    -3.17000  
2005  304   14.98000    -2.33000  
2005  305   13.64000    -1.82000  
2005  306   14.75000    -1.69000  
2005  307   13.20000    -1.82000  
2005  308   12.64000    -0.54000  
2005  309   14.20000    -0.08000  
2005  310   14.98000    -1.87000  
2005  311   11.69000    -1.71000  
2005  312   13.36000    -2.75000  
2005  313   10.66000    -2.60000  
2005  314    7.80000    -1.36000  
2005  315    8.54000    -1.17000  
2005  316    3.51000    -7.55000  
2005  317    5.09000    -7.45000  
2005  318    4.27000    -6.74000  
2005  319    5.85000    -6.63000  
2005  320    3.08000    -6.89000  
2005  321    2.01000   -11.39000  
2005  322    2.96000   -11.37000  
2005  323    6.06000   -11.89000  
2005  324    5.15000   -11.22000  
2005  325    4.62000   -10.54000  
2005  326    4.60000    -7.30000  
2005  327    4.65000    -9.96000  
2005  328    5.41000    -9.73000  
2005  329    2.83000    -9.20000  
2005  330    3.98000   -10.63000  
2005  331    5.02000   -10.42000  
2005  332    7.61000    -6.39000  
2005  333    8.43000    -6.64000  
2005  334    5.72000    -3.04000  
2005  335    8.44000    -3.63000  
2005  336    1.41000   -11.65000  
2005  337   -9.70000   -20.84000  
2005  338   -8.55000   -21.10000  
2005  339   -4.87000   -20.48000  
2005  340   -0.00000    -8.87000  
2005  341    2.51000    -4.36000  
2005  342    9.27000    -1.49000  
2005  343    7.90000    -8.17000  
2005  344    4.32000    -9.41000  
2005  345    3.86000    -9.21000  
2005  346    0.16000   -10.72000  
2005  347    0.08000   -12.67000  
2005  348    2.12000   -12.58000  
2005  349    2.81000   -10.79000  
2005  350    1.32000   -14.19000  
2005  351    0.73000   -14.58000  
2005  352    2.53000   -11.06000  
2005  353   -1.09000    -8.00000  
2005  354   -3.26000   -18.90000  
2005  355  -13.90000   -20.47000  
2005  356  -10.26000   -20.04000  
2005  357   -3.69000   -17.01000  
2005  358   -5.22000   -17.86000  
2005  359   -8.54000   -18.16000  
2005  360   -6.41000   -12.37000  
2005  361  -10.76000   -19.85000  
2005  362  -10.87000   -25.87000  
2005  363  -11.49000   -26.43000  
2005  364  -12.87000   -25.99000  
2005  365  -12.21000   -25.97000  
2006    1   -6.22000   -24.08000  
2006    2   -4.05000   -22.92000  
2006    3   -4.65000   -22.17000  
2006    4   -4.90000   -20.46000  
2006    5   -2.46000   -19.83000  
2006    6   -1.38000   -15.62000  
2006    7   -2.40000   -15.29000  
2006    8   -3.23000   -15.47000  
2006    9   -4.00000   -15.39000  
2006   10   -4.09000   -15.19000  
2006   11   -5.05000   -15.86000  
2006   12   -6.74000   -17.51000  
2006   13   -5.82000   -20.04000  
2006   14   -5.57000   -20.02000  
2006   15   -7.90000   -19.73000  
2006   16   -5.64000   -18.27000  
2006   17   -8.95000   -18.52000  
2006   18   -8.12000   -18.99000  
2006   19   -7.75000   -16.72000  
2006   20  -12.34000   -26.47000  
2006   21  -13.44000   -33.23000  
2006   22  -18.84000   -33.06000  
2006   23  -19.76000   -30.28000  
2006   24  -21.00000   -30.53000  
2006   25  -18.41000   -28.15000  
2006   26  -15.30000   -28.41000  
2006   27  -13.13000   -27.08000  
2006   28  -12.52000   -26.02000  
2006   29  -12.05000   -27.52000  
2006   30  -14.31000   -28.53000  
2006   31  -14.23000   -28.31000  
2006   32  -12.25000   -28.00000  
2006   33   -6.56000   -25.61000  
2006   34  -10.61000   -24.56000  
2006   35   -8.22000   -26.68000  
2006   36  -10.86000   -26.36000  
2006   37  -12.70000   -26.61000  
2006   38   -9.00000   -28.42000  
2006   39   -6.92000   -28.76000  
2006   40   -2.77000   -22.26000  
2006   41   -8.56000   -24.30000  
2006   42   -8.18000   -24.19000  
2006   43   -5.18000   -23.43000  
2006   44   -2.68000   -20.09000  
2006   45   -6.09000   -20.39000  
2006   46   -5.21000   -18.60000  
2006   47   -3.65000   -17.25000  
2006   48    1.14000   -15.18000  
2006   49    4.47000   -14.41000  
2006   50    8.57000   -12.08000  
2006   51    6.33000    -7.22000  
2006   52    3.74000    -9.34000  
2006   53    0.55000    -9.03000  
2006   54   -0.02000    -6.27000  
2006   55    1.91000   -14.38000  
2006   56    1.15000   -14.43000  
2006   57    3.70000   -13.45000  
2006   58    6.84000    -6.75000  
2006   59   10.46000    -5.11000  
2006   60    6.70000    -7.21000  
2006   61   10.04000    -6.96000  
2006   62   10.54000    -5.44000  
2006   63   12.71000    -3.89000  
2006   64   10.92000    -2.39000  
2006   65    6.82000    -4.69000  
2006   66   10.99000    -4.82000  
2006   67   16.31000    -3.49000  
2006   68   16.92000    -1.73000  
2006   69   16.08000     1.44000  
2006   70   11.49000    -4.39000  
2006   71    5.21000    -4.75000  
2006   72   15.70000    -3.23000  
2006   73    9.78000    -3.93000  
2006   74   17.35000    -3.48000  
2006   75   20.64000     0.42000  
2006   76   19.27000    -0.01000  
2006   77   10.42000    -1.43000  
2006   78   11.95000    -1.13000  
2006   79   10.40000    -2.67000  
2006   80   12.78000    -4.12000  
2006   81   12.27000    -4.17000  
2006   82   17.05000    -2.91000  
2006   83   17.57000    -0.87000  
2006   84   19.47000     1.50000  
2006   85   13.99000    -0.10000  
2006   86    7.74000    -1.52000  
2006   87   10.47000    -1.38000  
2006   88    7.48000    -0.27000  
2006   89    8.96000    -2.76000  
2006   90    6.62000    -3.70000  
2006   91   11.85000    -4.78000  
2006   92   15.65000    -2.84000  
2006   93   17.32000    -1.45000  
2006   94   18.87000    -0.18000  
2006   95   20.24000     1.69000  
2006   96   22.35000     3.18000  
2006   97   19.56000     5.68000  
2006   98   22.24000     6.19000  
2006   99   14.32000     1.53000  
2006  100   14.42000     2.44000  
2006  101   17.74000     1.94000  
2006  102   18.67000     1.36000  
2006  103   21.66000     3.31000  
2006  104   25.02000     4.83000  
2006  105   27.34000     6.59000  
2006  106   26.74000     8.22000  
2006  107   28.27000     9.74000  
2006  108   23.84000     0.99000  
2006  109   11.34000    -1.71000  
2006  110    7.14000    -1.36000  
2006  111   11.18000    -1.11000  
2006  112   14.47000    -1.18000  
2006  113   20.89000     0.47000  
2006  114   24.27000     3.86000  
2006  115   26.21000     7.98000  
2006  116   26.35000    10.34000  
2006  117   29.01000    12.17000  
2006  118   29.65000     9.52000  
2006  119   17.41000     6.46000  
2006  120   26.10000     8.78000  
2006  121   16.08000     4.23000  
2006  122   11.72000     1.32000  
2006  123   19.59000     4.59000  
2006  124   23.69000     7.94000  
2006  125   28.80000    11.85000  
2006  126   22.88000    11.50000  
2006  127   23.05000    12.80000  
2006  128   16.82000     5.04000  
2006  129   21.40000     5.81000  
2006  130   25.04000     6.48000  
2006  131   23.45000     6.77000  
2006  132   26.56000     9.73000  
2006  133   32.05000    14.00000  
2006  134   34.06000    13.85000  
2006  135   33.09000    16.51000  
2006  136   29.28000    14.36000  
2006  137   27.58000    12.17000  
2006  138   26.19000     9.75000  
2006  139   29.45000    12.55000  
2006  140   27.22000    14.51000  
2006  141   28.75000    13.38000  
2006  142   30.34000    12.99000  
2006  143   32.32000    14.95000  
2006  144   34.30000    17.56000  
2006  145   34.28000    14.78000  
2006  146   25.29000     9.42000  
2006  147   31.13000    14.48000  
2006  148   26.09000     9.75000  
2006  149   26.04000     9.30000  
2006  150   30.95000    14.79000  
2006  151   32.76000    17.49000  
2006  152   31.54000    14.89000  
2006  153   31.19000    15.81000  
2006  154   34.67000    18.66000  
2006  155   31.79000    18.75000  
2006  156   25.88000    13.38000  
2006  157   30.31000    17.05000  
2006  158   34.94000    19.75000  
2006  159   36.85000    18.53000  
2006  160   37.57000    20.34000  
2006  161   35.75000    19.90000  
2006  162   38.68000    19.46000  
2006  163   26.55000    14.18000  
2006  164   30.23000    13.87000  
2006  165   29.58000    14.02000  
2006  166   33.35000    15.99000  
2006  167   30.30000    15.48000  
2006  168   31.09000    15.26000  
2006  169   32.05000    18.29000  
2006  170   26.52000    13.74000  
2006  171   31.35000    19.02000  
2006  172   23.78000    13.80000  
2006  173   29.15000    13.39000  
2006  174   32.19000    18.09000  
2006  175   34.65000    19.72000  
2006  176   35.36000    22.20000  
2006  177   35.94000    19.74000  
2006  178   30.53000    19.00000  
2006  179   28.36000    16.03000  
2006  180   32.34000    17.27000  
2006  181   36.08000    19.18000  
2006  182   36.82000    22.32000  
2006  183   36.81000    24.90000  
2006  184   30.07000    16.77000  
2006  185   35.59000    18.55000  
2006  186   36.76000    19.95000  
2006  187   35.78000    19.32000  
2006  188   35.18000    22.59000  
2006  189   31.96000    21.60000  
2006  190   29.05000    17.13000  
2006  191   30.45000    15.76000  
2006  192   32.70000    17.29000  
2006  193   32.41000    18.40000  
2006  194   27.34000    15.14000  
2006  195   33.52000    18.24000  
2006  196   36.99000    21.31000  
2006  197   30.78000    19.57000  
2006  198   30.75000    18.23000  
2006  199   30.54000    18.71000  
2006  200   34.24000    20.67000  
2006  201   35.85000    22.54000  
2006  202   35.08000    20.60000  
2006  203   37.08000    23.38000  
2006  204   34.76000    23.70000  
2006  205   34.41000    22.71000  
2006  206   36.04000    22.23000  
2006  207   34.53000    22.38000  
2006  208   31.59000    18.19000  
2006  209   31.25000    19.93000  
2006  210   27.61000    20.80000  
2006  211   29.71000    20.29000  
2006  212   35.26000    20.97000  
2006  213   36.88000    20.34000  
2006  214   38.42000    23.35000  
2006  215   39.74000    24.27000  
2006  216   40.40000    21.88000  
2006  217   38.89000    23.42000  
2006  218   32.77000    19.92000  
2006  219   26.74000    16.28000  
2006  220   27.21000    13.42000  
2006  221   29.60000    15.38000  
2006  222   31.59000    17.62000  
2006  223   33.70000    16.46000  
2006  224   33.41000    16.64000  
2006  225   34.87000    17.54000  
2006  226   34.43000    19.94000  
2006  227   30.99000    15.76000  
2006  228   33.30000    16.85000  
2006  229   34.29000    18.19000  
2006  230   35.40000    21.00000  
2006  231   30.36000    14.72000  
2006  232   22.92000    13.82000  
2006  233   29.69000    15.03000  
2006  234   31.13000    17.12000  
2006  235   32.22000    16.41000  
2006  236   31.89000    16.30000  
2006  237   27.34000    11.32000  
2006  238   28.69000    12.35000  
2006  239   32.33000    14.86000  
2006  240   19.96000    11.47000  
2006  241   22.61000     7.36000  
2006  242   27.19000    10.21000  
2006  243   28.99000    11.73000  
2006  244   27.09000    12.97000  
2006  245   29.54000    14.19000  
2006  246   28.29000    12.03000  
2006  247   27.73000    13.67000  
2006  248   28.48000    15.45000  
2006  249   27.41000    14.00000  
2006  250   24.69000     8.35000  
2006  251   22.29000     9.13000  
2006  252   22.94000     8.10000  
2006  253   28.73000    10.06000  
2006  254   30.57000    11.23000  
2006  255   31.39000    12.94000  
2006  256   30.96000    12.29000  
2006  257   29.39000    11.30000  
2006  258   30.09000    11.39000  
2006  259   31.56000    11.39000  
2006  260   29.49000    12.95000  
2006  261   31.13000    15.42000  
2006  262   30.20000    14.86000  
2006  263   27.04000    13.71000  
2006  264   22.13000    13.53000  
2006  265   22.01000     9.84000  
2006  266   18.98000    10.36000  
2006  267   18.45000    10.35000  
2006  268   18.16000    10.80000  
2006  269   16.39000     7.59000  
2006  270   22.06000     7.84000  
2006  271   28.37000     9.91000  
2006  272   27.70000     9.54000  
2006  273   29.27000    10.39000  
2006  274   30.34000    11.61000  
2006  275   27.14000    11.70000  
2006  276   13.74000     6.66000  
2006  277   18.06000     6.86000  
2006  278   19.27000     5.38000  
2006  279   20.26000     5.89000  
2006  280   17.18000     2.43000  
2006  281   20.68000     3.22000  
2006  282   15.96000     0.50000  
2006  283   18.11000     0.90000  
2006  284   19.68000     4.05000  
2006  285   22.17000     5.35000  
2006  286   19.77000     5.44000  
2006  287   22.30000     5.86000  
2006  288   19.33000     2.98000  
2006  289   19.21000     2.80000  
2006  290   17.51000     2.75000  
2006  291   20.05000     3.11000  
2006  292   23.51000     2.78000  
2006  293   21.63000     2.49000  
2006  294    7.85000    -0.11000  
2006  295    8.26000    -7.00000  
2006  296   10.07000    -6.67000  
2006  297   14.73000    -3.51000  
2006  298   13.07000    -2.78000  
2006  299   13.97000    -4.99000  
2006  300   12.36000    -5.12000  
2006  301   13.34000    -2.82000  
2006  302   13.47000    -3.28000  
2006  303   13.42000    -3.17000  
2006  304   14.98000    -2.33000  
2006  305   13.64000    -1.82000  
2006  306   14.75000    -1.69000  
2006  307   13.20000    -1.82000  
2006  308   12.64000    -0.54000  
2006  309   14.20000    -0.08000  
2006  310   14.98000    -1.87000  
2006  311   11.69000    -1.71000  
2006  312   13.36000    -2.75000  
2006  313   10.66000    -2.60000  
2006  314    7.80000    -1.36000  
2006  315    8.54000    -1.17000  
2006  316    3.51000    -7.55000  
2006  317    5.09000    -7.45000  
2006  318    4.27000    -6.74000  
2006  319    5.85000    -6.63000  
2006  320    3.08000    -6.89000  
2006  321    2.01000   -11.39000  
2006  322    2.96000   -11.37000  
2006  323    6.06000   -11.89000  
2006  324    5.15000   -11.22000  
2006  325    4.62000   -10.54000  
2006  326    4.60000    -7.30000  
2006  327    4.65000    -9.96000  
2006  328    5.41000    -9.73000  
2006  329    2.83000    -9.20000  
2006  330    3.98000   -10.63000  
2006  331    5.02000   -10.42000  
2006  332    7.61000    -6.39000  
2006  333    8.43000    -6.64000  
2006  334    5.72000    -3.04000  
2006  335    8.44000    -3.63000  
2006  336    1.41000   -11.65000  
2006  337   -9.70000   -20.84000  
2006  338   -8.55000   -21.10000  
2006  339   -4.87000   -20.48000  
2006  340   -0.00000    -8.87000  
2006  341    2.51000    -4.36000  
2006  342    9.27000    -1.49000  
2006  343    7.90000    -8.17000  
2006  344    4.32000    -9.41000  
2006  345    3.86000    -9.21000  
2006  346    0.16000   -10.72000  
2006  347    0.08000   -12.67000  
2006  348    2.12000   -12.58000  
2006  349    2.81000   -10.79000  
2006  350    1.32000   -14.19000  
2006  351    0.73000   -14.58000  
2006  352    2.53000   -11.06000  
2006  353   -1.09000    -8.00000  
2006  354   -3.26000   -18.90000  
2006  355  -13.90000   -20.47000  
2006  356  -10.26000   -20.04000  
2006  357   -3.69000   -17.01000  
2006  358   -5.22000   -17.86000  
2006  359   -8.54000   -18.16000  
2006  360   -6.41000   -12.37000  
2006  361  -10.76000   -19.85000  
2006  362  -10.87000   -25.87000  
2006  363  -11.49000   -26.43000  
2006  364  -12.87000   -25.99000  
2006  365  -12.21000   -25.97000  
2007    1   -6.22000   -24.08000  
2007    2   -4.05000   -22.92000  
2007    3   -4.65000   -22.17000  
2007    4   -4.90000   -20.46000  
2007    5   -2.46000   -19.83000  
2007    6   -1.38000   -15.62000  
2007    7   -2.40000   -15.29000  
2007    8   -3.23000   -15.47000  
2007    9   -4.00000   -15.39000  
2007   10   -4.09000   -15.19000  
2007   11   -5.05000   -15.86000  
2007   12   -6.74000   -17.51000  
2007   13   -5.82000   -20.04000  
2007   14   -5.57000   -20.02000  
2007   15   -7.90000   -19.73000  
2007   16   -5.64000   -18.27000  
2007   17   -8.95000   -18.52000  
2007   18   -8.12000   -18.99000  
2007   19   -7.75000   -16.72000  
2007   20  -12.34000   -26.47000  
2007   21  -13.44000   -33.23000  
2007   22  -18.84000   -33.06000  
2007   23  -19.76000   -30.28000  
2007   24  -21.00000   -30.53000  
2007   25  -18.41000   -28.15000  
2007   26  -15.30000   -28.41000  
2007   27  -13.13000   -27.08000  
2007   28  -12.52000   -26.02000  
2007   29  -12.05000   -27.52000  
2007   30  -14.31000   -28.53000  
2007   31  -14.23000   -28.31000  
2007   32  -12.25000   -28.00000  
2007   33   -6.56000   -25.61000  
2007   34  -10.61000   -24.56000  
2007   35   -8.22000   -26.68000  
2007   36  -10.86000   -26.36000  
2007   37  -12.70000   -26.61000  
2007   38   -9.00000   -28.42000  
2007   39   -6.92000   -28.76000  
2007   40   -2.77000   -22.26000  
2007   41   -8.56000   -24.30000  
2007   42   -8.18000   -24.19000  
2007   43   -5.18000   -23.43000  
2007   44   -2.68000   -20.09000  
2007   45   -6.09000   -20.39000  
2007   46   -5.21000   -18.60000  
2007   47   -3.65000   -17.25000  
2007   48    1.14000   -15.18000  
2007   49    4.47000   -14.41000  
2007   50    8.57000   -12.08000  
2007   51    6.33000    -7.22000  
2007   52    3.74000    -9.34000  
2007   53    0.55000    -9.03000  
2007   54   -0.02000    -6.27000  
2007   55    1.91000   -14.38000  
2007   56    1.15000   -14.43000  
2007   57    3.70000   -13.45000  
2007   58    6.84000    -6.75000  
2007   59   10.46000    -5.11000  
2007   60    6.70000    -7.21000  
2007   61   10.04000    -6.96000  
2007   62   10.54000    -5.44000  
2007   63   12.71000    -3.89000  
2007   64   10.92000    -2.39000  
2007   65    6.82000    -4.69000  
2007   66   10.99000    -4.82000  
2007   67   16.31000    -3.49000  
2007   68   16.92000    -1.73000  
2007   69   16.08000     1.44000  
2007   70   11.49000    -4.39000  
2007   71    5.21000    -4.75000  
2007   72   15.70000    -3.23000  
2007   73    9.78000    -3.93000  
2007   74   17.35000    -3.48000  
2007   75   20.64000     0.42000  
2007   76   19.27000    -0.01000  
2007   77   10.42000    -1.43000  
2007   78   11.95000    -1.13000  
2007   79   10.40000    -2.67000  
2007   80   12.78000    -4.12000  
2007   81   12.27000    -4.17000  
2007   82   17.05000    -2.91000  
2007   83   17.57000    -0.87000  
2007   84   19.47000     1.50000  
2007   85   13.99000    -0.10000  
2007   86    7.74000    -1.52000  
2007   87   10.47000    -1.38000  
2007   88    7.48000    -0.27000  
2007   89    8.96000    -2.76000  
2007   90    6.62000    -3.70000  
2007   91   11.85000    -4.78000  
2007   92   15.65000    -2.84000  
2007   93   17.32000    -1.45000  
2007   94   18.87000    -0.18000  
2007   95   20.24000     1.69000  
2007   96   22.35000     3.18000  
2007   97   19.56000     5.68000  
2007   98   22.24000     6.19000  