169163tmp.tem: Temperature data - file written by SWAT+ editor 2025-11-04 13:23:50.744585
nbyr     tstep       lat       lon      elev
  14         0    42.031   100.531   938.000
2005    1   -6.86000   -23.07000  
2005    2   -5.79000   -21.26000  
2005    3   -5.74000   -20.82000  
2005    4   -6.27000   -19.52000  
2005    5   -3.28000   -18.35000  
2005    6   -1.20000   -15.01000  
2005    7   -2.78000   -14.98000  
2005    8   -3.11000   -15.16000  
2005    9   -4.74000   -15.40000  
2005   10   -3.32000   -14.34000  
2005   11   -3.83000   -14.79000  
2005   12   -5.80000   -16.49000  
2005   13   -5.43000   -18.04000  
2005   14   -4.74000   -18.33000  
2005   15   -7.64000   -18.43000  
2005   16   -7.08000   -18.60000  
2005   17   -8.08000   -18.97000  
2005   18   -6.84000   -18.15000  
2005   19   -6.18000   -14.27000  
2005   20  -11.84000   -24.17000  
2005   21  -12.98000   -31.41000  
2005   22  -17.42000   -31.70000  
2005   23  -17.18000   -28.84000  
2005   24  -17.49000   -29.61000  
2005   25  -15.39000   -25.03000  
2005   26  -13.78000   -25.92000  
2005   27  -12.39000   -26.48000  
2005   28  -12.64000   -26.21000  
2005   29  -11.90000   -24.86000  
2005   30  -13.54000   -27.07000  
2005   31  -14.37000   -27.08000  
2005   32  -13.62000   -27.39000  
2005   33   -9.43000   -28.04000  
2005   34  -11.79000   -23.82000  
2005   35   -7.69000   -23.61000  
2005   36  -10.45000   -23.58000  
2005   37  -10.99000   -23.40000  
2005   38   -8.69000   -24.81000  
2005   39   -6.88000   -24.57000  
2005   40   -3.51000   -22.45000  
2005   41   -8.24000   -22.18000  
2005   42   -8.11000   -22.05000  
2005   43   -5.46000   -21.17000  
2005   44   -1.68000   -17.12000  
2005   45   -4.45000   -17.73000  
2005   46   -2.64000   -17.67000  
2005   47   -1.56000   -14.75000  
2005   48    1.27000   -12.85000  
2005   49    3.78000   -12.77000  
2005   50    8.14000   -12.32000  
2005   51    7.00000    -5.65000  
2005   52    4.78000    -8.05000  
2005   53    4.80000    -7.23000  
2005   54    2.52000    -6.28000  
2005   55    3.17000   -12.78000  
2005   56    1.55000   -12.78000  
2005   57    4.02000   -12.30000  
2005   58    6.87000    -8.17000  
2005   59   10.17000    -6.13000  
2005   60    6.45000    -7.60000  
2005   61    9.74000    -7.47000  
2005   62   12.03000    -5.76000  
2005   63   13.23000    -4.61000  
2005   64   11.14000    -1.64000  
2005   65    6.71000    -3.29000  
2005   66   10.80000    -3.85000  
2005   67   15.29000    -2.07000  
2005   68   16.47000    -0.45000  
2005   69   16.38000     3.00000  
2005   70   12.42000    -3.76000  
2005   71    5.92000    -4.56000  
2005   72   15.85000    -2.41000  
2005   73   10.29000    -3.64000  
2005   74   15.94000    -3.09000  
2005   75   18.50000     0.40000  
2005   76   19.37000    -0.33000  
2005   77    9.78000    -1.23000  
2005   78   12.32000    -0.22000  
2005   79   11.09000    -1.84000  
2005   80   12.40000    -3.85000  
2005   81   12.71000    -4.02000  
2005   82   17.50000    -0.86000  
2005   83   16.61000     1.17000  
2005   84   19.54000     2.43000  
2005   85   15.53000     1.58000  
2005   86    9.80000    -2.24000  
2005   87    9.82000    -1.54000  
2005   88    6.77000    -0.23000  
2005   89   10.01000    -1.54000  
2005   90    5.54000    -3.50000  
2005   91   11.26000    -4.27000  
2005   92   15.89000    -2.47000  
2005   93   17.39000    -0.44000  
2005   94   19.03000     0.80000  
2005   95   19.73000     1.76000  
2005   96   21.58000     3.83000  
2005   97   19.33000     6.70000  
2005   98   22.53000     7.54000  
2005   99   14.32000     1.93000  
2005  100   14.79000     2.90000  
2005  101   17.70000     2.77000  
2005  102   18.58000     1.87000  
2005  103   21.78000     3.69000  
2005  104   24.13000     5.87000  
2005  105   26.66000     7.47000  
2005  106   27.18000    10.50000  
2005  107   28.85000    11.69000  
2005  108   23.47000     3.19000  
2005  109   13.69000    -0.00000  
2005  110    7.80000     0.13000  
2005  111   11.38000    -0.53000  
2005  112   14.89000     0.49000  
2005  113   20.87000     2.78000  
2005  114   24.34000     5.41000  
2005  115   26.49000     9.99000  
2005  116   26.64000    11.11000  
2005  117   29.01000    12.04000  
2005  118   30.02000    11.58000  
2005  119   17.27000     7.19000  
2005  120   25.82000    10.25000  
2005  121   17.69000     4.60000  
2005  122   13.08000     2.41000  
2005  123   18.72000     4.33000  
2005  124   22.97000     7.85000  
2005  125   29.15000    13.10000  
2005  126   23.59000    11.92000  
2005  127   23.12000    12.89000  
2005  128   17.44000     5.09000  
2005  129   20.69000     6.44000  
2005  130   24.10000     6.36000  
2005  131   21.94000     6.90000  
2005  132   26.09000    10.69000  
2005  133   32.52000    15.59000  
2005  134   33.88000    14.16000  
2005  135   32.78000    16.26000  
2005  136   28.42000    13.83000  
2005  137   27.34000    12.40000  
2005  138   26.73000    10.92000  
2005  139   29.38000    11.52000  
2005  140   26.57000    14.23000  
2005  141   28.61000    14.20000  
2005  142   31.01000    13.36000  
2005  143   32.75000    16.69000  
2005  144   34.45000    18.25000  
2005  145   35.43000    15.99000  
2005  146   25.39000     9.80000  
2005  147   31.61000    14.90000  
2005  148   26.12000     8.63000  
2005  149   25.15000     9.10000  
2005  150   30.98000    15.06000  
2005  151   32.26000    17.32000  
2005  152   31.17000    14.42000  
2005  153   30.35000    15.54000  
2005  154   33.54000    18.51000  
2005  155   31.70000    18.29000  
2005  156   25.37000    14.08000  
2005  157   30.81000    17.25000  
2005  158   34.43000    20.41000  
2005  159   36.69000    18.88000  
2005  160   37.82000    20.39000  
2005  161   36.81000    20.49000  
2005  162   39.15000    21.18000  
2005  163   27.47000    14.97000  
2005  164   31.43000    15.62000  
2005  165   29.29000    14.91000  
2005  166   33.33000    16.75000  
2005  167   30.79000    14.34000  
2005  168   31.29000    15.54000  
2005  169   33.58000    19.51000  
2005  170   26.58000    14.78000  
2005  171   31.74000    17.24000  
2005  172   24.40000    13.99000  
2005  173   28.40000    14.05000  
2005  174   32.20000    17.72000  
2005  175   34.98000    18.94000  
2005  176   35.40000    20.38000  
2005  177   36.25000    20.08000  
2005  178   30.32000    19.25000  
2005  179   27.36000    15.87000  
2005  180   32.87000    17.37000  
2005  181   36.49000    19.30000  
2005  182   37.01000    22.42000  
2005  183   37.18000    25.63000  
2005  184   29.42000    17.14000  
2005  185   35.65000    19.82000  
2005  186   37.36000    20.86000  
2005  187   36.21000    20.03000  
2005  188   35.67000    22.37000  
2005  189   33.53000    23.27000  
2005  190   31.48000    18.74000  
2005  191   31.51000    16.05000  
2005  192   32.82000    18.97000  
2005  193   33.51000    18.36000  
2005  194   24.84000    14.69000  
2005  195   33.13000    17.93000  
2005  196   37.10000    21.27000  
2005  197   33.85000    22.54000  
2005  198   31.85000    19.61000  
2005  199   31.33000    19.58000  
2005  200   34.05000    20.80000  
2005  201   36.10000    21.89000  
2005  202   35.93000    21.88000  
2005  203   37.48000    24.18000  
2005  204   34.95000    23.87000  
2005  205   34.48000    23.33000  
2005  206   37.97000    23.27000  
2005  207   35.24000    23.31000  
2005  208   32.00000    15.99000  
2005  209   30.86000    18.65000  
2005  210   28.38000    21.18000  
2005  211   29.90000    18.40000  
2005  212   35.97000    20.92000  
2005  213   36.63000    20.52000  
2005  214   38.45000    23.23000  
2005  215   39.34000    25.07000  
2005  216   40.67000    22.97000  
2005  217   39.61000    24.35000  
2005  218   34.69000    20.14000  
2005  219   26.94000    17.20000  
2005  220   23.09000    13.14000  
2005  221   28.91000    15.29000  
2005  222   31.38000    17.29000  
2005  223   33.64000    18.25000  
2005  224   33.85000    17.87000  
2005  225   35.71000    19.20000  
2005  226   34.73000    20.63000  
2005  227   31.57000    17.22000  
2005  228   32.80000    17.26000  
2005  229   34.72000    18.50000  
2005  230   36.29000    20.97000  
2005  231   30.95000    14.74000  
2005  232   23.92000    13.99000  
2005  233   29.55000    15.96000  
2005  234   31.57000    17.95000  
2005  235   32.42000    18.59000  
2005  236   32.55000    17.62000  
2005  237   27.53000    11.66000  
2005  238   27.54000    12.54000  
2005  239   31.44000    14.65000  
2005  240   24.23000    11.10000  
2005  241   20.28000     7.79000  
2005  242   26.54000    10.51000  
2005  243   28.86000    12.95000  
2005  244   28.10000    14.25000  
2005  245   29.10000    14.64000  
2005  246   28.03000    13.18000  
2005  247   27.92000    14.52000  
2005  248   28.25000    15.69000  
2005  249   27.63000    14.57000  
2005  250   26.37000     9.42000  
2005  251   22.03000     9.99000  
2005  252   22.42000     9.72000  
2005  253   27.72000    10.59000  
2005  254   30.48000    11.29000  
2005  255   31.96000    13.75000  
2005  256   31.75000    15.17000  
2005  257   29.57000    13.15000  
2005  258   30.31000    12.29000  
2005  259   30.95000    12.30000  
2005  260   29.28000    13.48000  
2005  261   31.16000    14.99000  
2005  262   30.02000    15.27000  
2005  263   28.09000    15.36000  
2005  264   24.63000    14.55000  
2005  265   21.53000    10.26000  
2005  266   20.21000    10.84000  
2005  267   20.90000    12.20000  
2005  268   19.05000    11.30000  
2005  269   16.81000     8.89000  
2005  270   21.18000     9.03000  
2005  271   27.33000     9.92000  
2005  272   26.88000    10.60000  
2005  273   29.20000    11.40000  
2005  274   30.79000    11.29000  
2005  275   28.15000    11.47000  
2005  276   13.30000     6.98000  
2005  277   17.19000     7.48000  
2005  278   18.67000     6.07000  
2005  279   20.01000     6.54000  
2005  280   17.00000     3.05000  
2005  281   19.76000     4.00000  
2005  282   15.54000     2.22000  
2005  283   17.85000     2.85000  
2005  284   19.66000     3.99000  
2005  285   21.38000     5.65000  
2005  286   19.66000     4.52000  
2005  287   21.20000     5.72000  
2005  288   20.04000     3.96000  
2005  289   20.17000     3.69000  
2005  290   16.86000     4.40000  
2005  291   19.77000     4.17000  
2005  292   22.29000     3.98000  
2005  293   21.56000     4.19000  
2005  294    7.91000     0.18000  
2005  295    8.02000    -5.56000  
2005  296    9.85000    -4.97000  
2005  297   14.67000    -2.75000  
2005  298   13.17000    -2.86000  
2005  299   13.84000    -2.85000  
2005  300   13.72000    -3.24000  
2005  301   13.47000    -0.67000  
2005  302   13.27000    -1.47000  
2005  303   13.43000    -1.34000  
2005  304   14.60000    -1.31000  
2005  305   12.73000    -0.49000  
2005  306   14.23000     0.54000  
2005  307   12.68000    -0.32000  
2005  308   12.46000     0.52000  
2005  309   13.42000     0.19000  
2005  310   14.43000    -1.56000  
2005  311   11.90000    -2.17000  
2005  312   12.45000    -1.45000  
2005  313   11.91000    -1.23000  
2005  314    7.22000    -0.02000  
2005  315    9.26000    -0.47000  
2005  316    3.37000    -6.98000  
2005  317    4.48000    -6.65000  
2005  318    4.53000    -6.32000  
2005  319    5.20000    -6.14000  
2005  320    3.61000    -6.82000  
2005  321    2.01000   -10.62000  
2005  322    2.67000   -10.62000  
2005  323    6.37000   -10.06000  
2005  324    6.07000    -9.13000  
2005  325    4.50000    -9.32000  
2005  326    4.02000    -7.59000  
2005  327    3.88000    -8.85000  
2005  328    4.93000    -8.52000  
2005  329    3.35000    -9.47000  
2005  330    3.54000   -10.10000  
2005  331    4.06000    -8.99000  
2005  332    6.71000    -6.02000  
2005  333    7.90000    -6.45000  
2005  334    5.63000    -3.53000  
2005  335    7.75000    -3.67000  
2005  336    2.37000   -10.91000  
2005  337   -8.41000   -19.42000  
2005  338   -7.59000   -19.12000  
2005  339   -3.08000   -18.14000  
2005  340   -1.10000   -10.57000  
2005  341    1.39000    -4.73000  
2005  342    7.56000    -1.61000  
2005  343    7.30000    -7.37000  
2005  344    3.43000    -8.80000  
2005  345    3.03000    -8.65000  
2005  346   -0.62000   -11.46000  
2005  347   -0.23000   -12.30000  
2005  348    1.23000   -12.20000  
2005  349    1.46000   -12.27000  
2005  350    1.26000   -13.46000  
2005  351    0.27000   -14.04000  
2005  352    1.08000   -10.64000  
2005  353   -0.68000    -9.32000  
2005  354   -3.44000   -19.40000  
2005  355  -13.14000   -20.84000  
2005  356  -10.46000   -20.84000  
2005  357   -5.03000   -17.62000  
2005  358   -4.92000   -17.06000  
2005  359   -6.22000   -16.21000  
2005  360   -6.10000   -10.96000  
2005  361   -9.02000   -18.43000  
2005  362   -9.87000   -23.55000  
2005  363  -11.10000   -23.81000  
2005  364  -10.04000   -23.60000  
2005  365   -9.64000   -24.00000  
2006    1   -6.86000   -23.07000  
2006    2   -5.79000   -21.26000  
2006    3   -5.74000   -20.82000  
2006    4   -6.27000   -19.52000  
2006    5   -3.28000   -18.35000  
2006    6   -1.20000   -15.01000  
2006    7   -2.78000   -14.98000  
2006    8   -3.11000   -15.16000  
2006    9   -4.74000   -15.40000  
2006   10   -3.32000   -14.34000  
2006   11   -3.83000   -14.79000  
2006   12   -5.80000   -16.49000  
2006   13   -5.43000   -18.04000  
2006   14   -4.74000   -18.33000  
2006   15   -7.64000   -18.43000  
2006   16   -7.08000   -18.60000  
2006   17   -8.08000   -18.97000  
2006   18   -6.84000   -18.15000  
2006   19   -6.18000   -14.27000  
2006   20  -11.84000   -24.17000  
2006   21  -12.98000   -31.41000  
2006   22  -17.42000   -31.70000  
2006   23  -17.18000   -28.84000  
2006   24  -17.49000   -29.61000  
2006   25  -15.39000   -25.03000  
2006   26  -13.78000   -25.92000  
2006   27  -12.39000   -26.48000  
2006   28  -12.64000   -26.21000  
2006   29  -11.90000   -24.86000  
2006   30  -13.54000   -27.07000  
2006   31  -14.37000   -27.08000  
2006   32  -13.62000   -27.39000  
2006   33   -9.43000   -28.04000  
2006   34  -11.79000   -23.82000  
2006   35   -7.69000   -23.61000  
2006   36  -10.45000   -23.58000  
2006   37  -10.99000   -23.40000  
2006   38   -8.69000   -24.81000  
2006   39   -6.88000   -24.57000  
2006   40   -3.51000   -22.45000  
2006   41   -8.24000   -22.18000  
2006   42   -8.11000   -22.05000  
2006   43   -5.46000   -21.17000  
2006   44   -1.68000   -17.12000  
2006   45   -4.45000   -17.73000  
2006   46   -2.64000   -17.67000  
2006   47   -1.56000   -14.75000  
2006   48    1.27000   -12.85000  
2006   49    3.78000   -12.77000  
2006   50    8.14000   -12.32000  
2006   51    7.00000    -5.65000  
2006   52    4.78000    -8.05000  
2006   53    4.80000    -7.23000  
2006   54    2.52000    -6.28000  
2006   55    3.17000   -12.78000  
2006   56    1.55000   -12.78000  
2006   57    4.02000   -12.30000  
2006   58    6.87000    -8.17000  
2006   59   10.17000    -6.13000  
2006   60    6.45000    -7.60000  
2006   61    9.74000    -7.47000  
2006   62   12.03000    -5.76000  
2006   63   13.23000    -4.61000  
2006   64   11.14000    -1.64000  
2006   65    6.71000    -3.29000  
2006   66   10.80000    -3.85000  
2006   67   15.29000    -2.07000  
2006   68   16.47000    -0.45000  
2006   69   16.38000     3.00000  
2006   70   12.42000    -3.76000  
2006   71    5.92000    -4.56000  
2006   72   15.85000    -2.41000  
2006   73   10.29000    -3.64000  
2006   74   15.94000    -3.09000  
2006   75   18.50000     0.40000  
2006   76   19.37000    -0.33000  
2006   77    9.78000    -1.23000  
2006   78   12.32000    -0.22000  
2006   79   11.09000    -1.84000  
2006   80   12.40000    -3.85000  
2006   81   12.71000    -4.02000  
2006   82   17.50000    -0.86000  
2006   83   16.61000     1.17000  
2006   84   19.54000     2.43000  
2006   85   15.53000     1.58000  
2006   86    9.80000    -2.24000  
2006   87    9.82000    -1.54000  
2006   88    6.77000    -0.23000  
2006   89   10.01000    -1.54000  
2006   90    5.54000    -3.50000  
2006   91   11.26000    -4.27000  
2006   92   15.89000    -2.47000  
2006   93   17.39000    -0.44000  
2006   94   19.03000     0.80000  
2006   95   19.73000     1.76000  
2006   96   21.58000     3.83000  
2006   97   19.33000     6.70000  
2006   98   22.53000     7.54000  
2006   99   14.32000     1.93000  
2006  100   14.79000     2.90000  
2006  101   17.70000     2.77000  
2006  102   18.58000     1.87000  
2006  103   21.78000     3.69000  
2006  104   24.13000     5.87000  
2006  105   26.66000     7.47000  
2006  106   27.18000    10.50000  
2006  107   28.85000    11.69000  
2006  108   23.47000     3.19000  
2006  109   13.69000    -0.00000  
2006  110    7.80000     0.13000  
2006  111   11.38000    -0.53000  
2006  112   14.89000     0.49000  
2006  113   20.87000     2.78000  
2006  114   24.34000     5.41000  
2006  115   26.49000     9.99000  
2006  116   26.64000    11.11000  
2006  117   29.01000    12.04000  
2006  118   30.02000    11.58000  
2006  119   17.27000     7.19000  
2006  120   25.82000    10.25000  
2006  121   17.69000     4.60000  
2006  122   13.08000     2.41000  
2006  123   18.72000     4.33000  
2006  124   22.97000     7.85000  
2006  125   29.15000    13.10000  
2006  126   23.59000    11.92000  
2006  127   23.12000    12.89000  
2006  128   17.44000     5.09000  
2006  129   20.69000     6.44000  
2006  130   24.10000     6.36000  
2006  131   21.94000     6.90000  
2006  132   26.09000    10.69000  
2006  133   32.52000    15.59000  
2006  134   33.88000    14.16000  
2006  135   32.78000    16.26000  
2006  136   28.42000    13.83000  
2006  137   27.34000    12.40000  
2006  138   26.73000    10.92000  
2006  139   29.38000    11.52000  
2006  140   26.57000    14.23000  
2006  141   28.61000    14.20000  
2006  142   31.01000    13.36000  
2006  143   32.75000    16.69000  
2006  144   34.45000    18.25000  
2006  145   35.43000    15.99000  
2006  146   25.39000     9.80000  
2006  147   31.61000    14.90000  
2006  148   26.12000     8.63000  
2006  149   25.15000     9.10000  
2006  150   30.98000    15.06000  
2006  151   32.26000    17.32000  
2006  152   31.17000    14.42000  
2006  153   30.35000    15.54000  
2006  154   33.54000    18.51000  
2006  155   31.70000    18.29000  
2006  156   25.37000    14.08000  
2006  157   30.81000    17.25000  
2006  158   34.43000    20.41000  
2006  159   36.69000    18.88000  
2006  160   37.82000    20.39000  
2006  161   36.81000    20.49000  
2006  162   39.15000    21.18000  
2006  163   27.47000    14.97000  
2006  164   31.43000    15.62000  
2006  165   29.29000    14.91000  
2006  166   33.33000    16.75000  
2006  167   30.79000    14.34000  
2006  168   31.29000    15.54000  
2006  169   33.58000    19.51000  
2006  170   26.58000    14.78000  
2006  171   31.74000    17.24000  
2006  172   24.40000    13.99000  
2006  173   28.40000    14.05000  
2006  174   32.20000    17.72000  
2006  175   34.98000    18.94000  
2006  176   35.40000    20.38000  
2006  177   36.25000    20.08000  
2006  178   30.32000    19.25000  
2006  179   27.36000    15.87000  
2006  180   32.87000    17.37000  
2006  181   36.49000    19.30000  
2006  182   37.01000    22.42000  
2006  183   37.18000    25.63000  
2006  184   29.42000    17.14000  
2006  185   35.65000    19.82000  
2006  186   37.36000    20.86000  
2006  187   36.21000    20.03000  
2006  188   35.67000    22.37000  
2006  189   33.53000    23.27000  
2006  190   31.48000    18.74000  
2006  191   31.51000    16.05000  
2006  192   32.82000    18.97000  
2006  193   33.51000    18.36000  
2006  194   24.84000    14.69000  
2006  195   33.13000    17.93000  
2006  196   37.10000    21.27000  
2006  197   33.85000    22.54000  
2006  198   31.85000    19.61000  
2006  199   31.33000    19.58000  
2006  200   34.05000    20.80000  
2006  201   36.10000    21.89000  
2006  202   35.93000    21.88000  
2006  203   37.48000    24.18000  
2006  204   34.95000    23.87000  
2006  205   34.48000    23.33000  
2006  206   37.97000    23.27000  
2006  207   35.24000    23.31000  
2006  208   32.00000    15.99000  
2006  209   30.86000    18.65000  
2006  210   28.38000    21.18000  
2006  211   29.90000    18.40000  
2006  212   35.97000    20.92000  
2006  213   36.63000    20.52000  
2006  214   38.45000    23.23000  
2006  215   39.34000    25.07000  
2006  216   40.67000    22.97000  
2006  217   39.61000    24.35000  
2006  218   34.69000    20.14000  
2006  219   26.94000    17.20000  
2006  220   23.09000    13.14000  
2006  221   28.91000    15.29000  
2006  222   31.38000    17.29000  
2006  223   33.64000    18.25000  
2006  224   33.85000    17.87000  
2006  225   35.71000    19.20000  
2006  226   34.73000    20.63000  
2006  227   31.57000    17.22000  
2006  228   32.80000    17.26000  
2006  229   34.72000    18.50000  
2006  230   36.29000    20.97000  
2006  231   30.95000    14.74000  
2006  232   23.92000    13.99000  
2006  233   29.55000    15.96000  
2006  234   31.57000    17.95000  
2006  235   32.42000    18.59000  
2006  236   32.55000    17.62000  
2006  237   27.53000    11.66000  
2006  238   27.54000    12.54000  
2006  239   31.44000    14.65000  
2006  240   24.23000    11.10000  
2006  241   20.28000     7.79000  
2006  242   26.54000    10.51000  
2006  243   28.86000    12.95000  
2006  244   28.10000    14.25000  
2006  245   29.10000    14.64000  
2006  246   28.03000    13.18000  
2006  247   27.92000    14.52000  
2006  248   28.25000    15.69000  
2006  249   27.63000    14.57000  
2006  250   26.37000     9.42000  
2006  251   22.03000     9.99000  
2006  252   22.42000     9.72000  
2006  253   27.72000    10.59000  
2006  254   30.48000    11.29000  
2006  255   31.96000    13.75000  
2006  256   31.75000    15.17000  
2006  257   29.57000    13.15000  
2006  258   30.31000    12.29000  
2006  259   30.95000    12.30000  
2006  260   29.28000    13.48000  
2006  261   31.16000    14.99000  
2006  262   30.02000    15.27000  
2006  263   28.09000    15.36000  
2006  264   24.63000    14.55000  
2006  265   21.53000    10.26000  
2006  266   20.21000    10.84000  
2006  267   20.90000    12.20000  
2006  268   19.05000    11.30000  
2006  269   16.81000     8.89000  
2006  270   21.18000     9.03000  
2006  271   27.33000     9.92000  
2006  272   26.88000    10.60000  
2006  273   29.20000    11.40000  
2006  274   30.79000    11.29000  
2006  275   28.15000    11.47000  
2006  276   13.30000     6.98000  
2006  277   17.19000     7.48000  
2006  278   18.67000     6.07000  
2006  279   20.01000     6.54000  
2006  280   17.00000     3.05000  
2006  281   19.76000     4.00000  
2006  282   15.54000     2.22000  
2006  283   17.85000     2.85000  
2006  284   19.66000     3.99000  
2006  285   21.38000     5.65000  
2006  286   19.66000     4.52000  
2006  287   21.20000     5.72000  
2006  288   20.04000     3.96000  
2006  289   20.17000     3.69000  
2006  290   16.86000     4.40000  
2006  291   19.77000     4.17000  
2006  292   22.29000     3.98000  
2006  293   21.56000     4.19000  
2006  294    7.91000     0.18000  
2006  295    8.02000    -5.56000  
2006  296    9.85000    -4.97000  
2006  297   14.67000    -2.75000  
2006  298   13.17000    -2.86000  
2006  299   13.84000    -2.85000  
2006  300   13.72000    -3.24000  
2006  301   13.47000    -0.67000  
2006  302   13.27000    -1.47000  
2006  303   13.43000    -1.34000  
2006  304   14.60000    -1.31000  
2006  305   12.73000    -0.49000  
2006  306   14.23000     0.54000  
2006  307   12.68000    -0.32000  
2006  308   12.46000     0.52000  
2006  309   13.42000     0.19000  
2006  310   14.43000    -1.56000  
2006  311   11.90000    -2.17000  
2006  312   12.45000    -1.45000  
2006  313   11.91000    -1.23000  
2006  314    7.22000    -0.02000  
2006  315    9.26000    -0.47000  
2006  316    3.37000    -6.98000  
2006  317    4.48000    -6.65000  
2006  318    4.53000    -6.32000  
2006  319    5.20000    -6.14000  
2006  320    3.61000    -6.82000  
2006  321    2.01000   -10.62000  
2006  322    2.67000   -10.62000  
2006  323    6.37000   -10.06000  
2006  324    6.07000    -9.13000  
2006  325    4.50000    -9.32000  
2006  326    4.02000    -7.59000  
2006  327    3.88000    -8.85000  
2006  328    4.93000    -8.52000  
2006  329    3.35000    -9.47000  
2006  330    3.54000   -10.10000  
2006  331    4.06000    -8.99000  
2006  332    6.71000    -6.02000  
2006  333    7.90000    -6.45000  
2006  334    5.63000    -3.53000  
2006  335    7.75000    -3.67000  
2006  336    2.37000   -10.91000  
2006  337   -8.41000   -19.42000  
2006  338   -7.59000   -19.12000  
2006  339   -3.08000   -18.14000  
2006  340   -1.10000   -10.57000  
2006  341    1.39000    -4.73000  
2006  342    7.56000    -1.61000  
2006  343    7.30000    -7.37000  
2006  344    3.43000    -8.80000  
2006  345    3.03000    -8.65000  
2006  346   -0.62000   -11.46000  
2006  347   -0.23000   -12.30000  
2006  348    1.23000   -12.20000  
2006  349    1.46000   -12.27000  
2006  350    1.26000   -13.46000  
2006  351    0.27000   -14.04000  
2006  352    1.08000   -10.64000  
2006  353   -0.68000    -9.32000  
2006  354   -3.44000   -19.40000  
2006  355  -13.14000   -20.84000  
2006  356  -10.46000   -20.84000  
2006  357   -5.03000   -17.62000  
2006  358   -4.92000   -17.06000  
2006  359   -6.22000   -16.21000  
2006  360   -6.10000   -10.96000  
2006  361   -9.02000   -18.43000  
2006  362   -9.87000   -23.55000  
2006  363  -11.10000   -23.81000  
2006  364  -10.04000   -23.60000  
2006  365   -9.64000   -24.00000  
2007    1   -6.86000   -23.07000  
2007    2   -5.79000   -21.26000  
2007    3   -5.74000   -20.82000  
2007    4   -6.27000   -19.52000  
2007    5   -3.28000   -18.35000  
2007    6   -1.20000   -15.01000  
2007    7   -2.78000   -14.98000  
2007    8   -3.11000   -15.16000  
2007    9   -4.74000   -15.40000  
2007   10   -3.32000   -14.34000  
2007   11   -3.83000   -14.79000  
2007   12   -5.80000   -16.49000  
2007   13   -5.43000   -18.04000  
2007   14   -4.74000   -18.33000  
2007   15   -7.64000   -18.43000  
2007   16   -7.08000   -18.60000  
2007   17   -8.08000   -18.97000  
2007   18   -6.84000   -18.15000  
2007   19   -6.18000   -14.27000  
2007   20  -11.84000   -24.17000  
2007   21  -12.98000   -31.41000  
2007   22  -17.42000   -31.70000  
2007   23  -17.18000   -28.84000  
2007   24  -17.49000   -29.61000  
2007   25  -15.39000   -25.03000  
2007   26  -13.78000   -25.92000  
2007   27  -12.39000   -26.48000  
2007   28  -12.64000   -26.21000  
2007   29  -11.90000   -24.86000  
2007   30  -13.54000   -27.07000  
2007   31  -14.37000   -27.08000  
2007   32  -13.62000   -27.39000  
2007   33   -9.43000   -28.04000  
2007   34  -11.79000   -23.82000  
2007   35   -7.69000   -23.61000  
2007   36  -10.45000   -23.58000  
2007   37  -10.99000   -23.40000  
2007   38   -8.69000   -24.81000  
2007   39   -6.88000   -24.57000  
2007   40   -3.51000   -22.45000  
2007   41   -8.24000   -22.18000  
2007   42   -8.11000   -22.05000  
2007   43   -5.46000   -21.17000  
2007   44   -1.68000   -17.12000  
2007   45   -4.45000   -17.73000  
2007   46   -2.64000   -17.67000  
2007   47   -1.56000   -14.75000  
2007   48    1.27000   -12.85000  
2007   49    3.78000   -12.77000  
2007   50    8.14000   -12.32000  
2007   51    7.00000    -5.65000  
2007   52    4.78000    -8.05000  
2007   53    4.80000    -7.23000  
2007   54    2.52000    -6.28000  
2007   55    3.17000   -12.78000  
2007   56    1.55000   -12.78000  
2007   57    4.02000   -12.30000  
2007   58    6.87000    -8.17000  
2007   59   10.17000    -6.13000  
2007   60    6.45000    -7.60000  
2007   61    9.74000    -7.47000  
2007   62   12.03000    -5.76000  
2007   63   13.23000    -4.61000  
2007   64   11.14000    -1.64000  
2007   65    6.71000    -3.29000  
2007   66   10.80000    -3.85000  
2007   67   15.29000    -2.07000  
2007   68   16.47000    -0.45000  
2007   69   16.38000     3.00000  
2007   70   12.42000    -3.76000  
2007   71    5.92000    -4.56000  
2007   72   15.85000    -2.41000  
2007   73   10.29000    -3.64000  
2007   74   15.94000    -3.09000  
2007   75   18.50000     0.40000  
2007   76   19.37000    -0.33000  
2007   77    9.78000    -1.23000  
2007   78   12.32000    -0.22000  
2007   79   11.09000    -1.84000  
2007   80   12.40000    -3.85000  
2007   81   12.71000    -4.02000  
2007   82   17.50000    -0.86000  
2007   83   16.61000     1.17000  
2007   84   19.54000     2.43000  
2007   85   15.53000     1.58000  
2007   86    9.80000    -2.24000  
2007   87    9.82000    -1.54000  
2007   88    6.77000    -0.23000  
2007   89   10.01000    -1.54000  
2007   90    5.54000    -3.50000  
2007   91   11.26000    -4.27000  
2007   92   15.89000    -2.47000  
2007   93   17.39000    -0.44000  
2007   94   19.03000     0.80000  
2007   95   19.73000     1.76000  
2007   96   21.58000     3.83000  
2007   97   19.33000     6.70000  
2007   98   22.53000     7.54000  