172163tmp.tem: Temperature data - file written by SWAT+ editor 2025-11-04 13:23:50.853178
nbyr     tstep       lat       lon      elev
  14         0    42.781   100.531  1098.000
2005    1   -8.29000   -23.29000  
2005    2   -8.61000   -21.94000  
2005    3   -8.71000   -20.60000  
2005    4   -7.10000   -19.58000  
2005    5   -3.53000   -18.04000  
2005    6   -3.70000   -14.25000  
2005    7   -3.76000   -14.71000  
2005    8   -4.72000   -19.37000  
2005    9   -7.02000   -17.97000  
2005   10   -5.06000   -18.71000  
2005   11   -5.72000   -18.45000  
2005   12   -6.84000   -18.11000  
2005   13   -6.25000   -21.37000  
2005   14   -7.43000   -20.78000  
2005   15   -8.94000   -20.37000  
2005   16   -8.09000   -19.42000  
2005   17   -7.71000   -19.97000  
2005   18   -7.47000   -19.00000  
2005   19   -6.55000   -15.02000  
2005   20  -12.24000   -25.40000  
2005   21  -14.06000   -33.58000  
2005   22  -17.93000   -32.93000  
2005   23  -17.05000   -30.38000  
2005   24  -16.79000   -29.94000  
2005   25  -15.42000   -27.21000  
2005   26  -13.44000   -27.20000  
2005   27  -14.34000   -28.92000  
2005   28  -14.82000   -28.36000  
2005   29  -12.64000   -26.00000  
2005   30  -13.99000   -24.89000  
2005   31  -14.30000   -27.36000  
2005   32  -13.85000   -27.47000  
2005   33  -11.47000   -24.03000  
2005   34  -13.85000   -23.37000  
2005   35  -10.29000   -23.46000  
2005   36  -10.27000   -23.07000  
2005   37  -11.95000   -24.86000  
2005   38  -10.70000   -24.27000  
2005   39   -8.38000   -22.00000  
2005   40   -6.90000   -24.11000  
2005   41  -10.64000   -24.37000  
2005   42  -10.91000   -24.32000  
2005   43   -9.78000   -22.06000  
2005   44   -6.73000   -17.94000  
2005   45   -6.73000   -18.22000  
2005   46   -6.11000   -18.53000  
2005   47   -3.13000   -16.53000  
2005   48   -1.39000   -14.54000  
2005   49    1.67000   -13.41000  
2005   50    5.80000   -11.71000  
2005   51    3.38000    -9.22000  
2005   52   -1.06000   -10.64000  
2005   53    1.31000    -9.27000  
2005   54   -1.03000    -9.33000  
2005   55   -0.83000   -18.10000  
2005   56   -1.54000   -16.91000  
2005   57    0.72000   -12.71000  
2005   58    4.95000    -8.85000  
2005   59    7.61000    -8.14000  
2005   60    4.58000   -10.60000  
2005   61    8.69000    -7.14000  
2005   62   12.22000    -5.52000  
2005   63   12.49000    -4.64000  
2005   64    9.76000    -4.04000  
2005   65    6.60000    -5.94000  
2005   66   10.32000    -4.91000  
2005   67   13.31000    -1.51000  
2005   68   15.27000     1.43000  
2005   69   14.99000     3.00000  
2005   70    9.41000    -6.44000  
2005   71    4.21000    -8.21000  
2005   72   11.45000    -3.38000  
2005   73    8.45000    -5.24000  
2005   74   14.03000    -2.95000  
2005   75   16.73000     1.25000  
2005   76   16.45000    -3.37000  
2005   77    7.97000    -4.59000  
2005   78   10.97000    -1.71000  
2005   79    8.79000    -3.72000  
2005   80   10.76000    -5.26000  
2005   81   10.48000    -5.03000  
2005   82   15.75000    -0.21000  
2005   83   15.41000     0.11000  
2005   84   18.67000     1.30000  
2005   85   13.97000    -1.94000  
2005   86    6.81000    -3.51000  
2005   87    6.75000    -4.07000  
2005   88    5.33000    -3.59000  
2005   89    5.78000    -3.10000  
2005   90    3.02000    -6.18000  
2005   91    8.56000    -5.16000  
2005   92   13.54000    -3.04000  
2005   93   15.20000    -1.00000  
2005   94   17.06000     0.94000  
2005   95   17.58000     0.28000  
2005   96   19.44000     3.64000  
2005   97   17.74000     5.50000  
2005   98   19.70000     5.83000  
2005   99   11.20000    -0.66000  
2005  100   12.71000    -0.18000  
2005  101   15.08000     1.05000  
2005  102   16.50000     1.89000  
2005  103   20.17000     2.94000  
2005  104   21.43000     7.69000  
2005  105   24.50000     8.86000  
2005  106   25.98000     8.33000  
2005  107   27.81000    10.32000  
2005  108   22.34000     2.84000  
2005  109   13.37000    -0.72000  
2005  110    7.26000    -0.38000  
2005  111    9.82000    -3.53000  
2005  112   13.75000    -1.81000  
2005  113   19.66000     1.98000  
2005  114   22.94000     6.03000  
2005  115   25.04000    10.04000  
2005  116   25.27000    10.67000  
2005  117   28.10000    12.55000  
2005  118   28.57000    10.43000  
2005  119   16.34000     7.13000  
2005  120   23.23000    10.13000  
2005  121   15.27000     2.21000  
2005  122    9.82000     0.79000  
2005  123   15.95000     1.87000  
2005  124   21.23000     6.07000  
2005  125   27.29000    12.91000  
2005  126   22.82000     7.45000  
2005  127   20.88000     9.09000  
2005  128   13.79000     3.06000  
2005  129   17.78000     3.14000  
2005  130   20.72000     4.55000  
2005  131   20.43000     5.97000  
2005  132   24.77000     8.97000  
2005  133   30.95000    14.98000  
2005  134   31.81000    14.42000  
2005  135   30.77000    15.37000  
2005  136   25.15000     9.57000  
2005  137   25.28000     8.08000  
2005  138   25.25000    11.15000  
2005  139   27.18000     6.86000  
2005  140   25.06000    11.51000  
2005  141   27.11000    14.02000  
2005  142   29.81000    13.41000  
2005  143   30.85000    15.39000  
2005  144   33.13000    17.95000  
2005  145   32.91000    13.85000  
2005  146   23.54000     9.34000  
2005  147   30.13000    14.10000  
2005  148   23.40000     5.39000  
2005  149   23.94000     7.57000  
2005  150   30.53000    15.43000  
2005  151   29.86000    13.00000  
2005  152   29.53000    12.05000  
2005  153   29.02000    14.08000  
2005  154   31.78000    17.45000  
2005  155   29.42000    13.39000  
2005  156   24.10000    12.47000  
2005  157   30.46000    17.00000  
2005  158   33.86000    17.52000  
2005  159   35.21000    19.02000  
2005  160   36.31000    19.21000  
2005  161   35.42000    19.35000  
2005  162   37.60000    19.60000  
2005  163   25.91000    13.08000  
2005  164   29.08000    12.81000  
2005  165   27.14000    15.18000  
2005  166   30.69000    12.63000  
2005  167   28.63000    12.17000  
2005  168   29.87000    16.48000  
2005  169   32.61000    17.39000  
2005  170   26.83000    15.13000  
2005  171   30.13000    15.99000  
2005  172   25.15000    12.21000  
2005  173   25.83000    12.28000  
2005  174   30.47000    15.71000  
2005  175   33.23000    16.32000  
2005  176   33.53000    17.63000  
2005  177   33.70000    19.50000  
2005  178   28.30000    15.79000  
2005  179   23.85000    15.14000  
2005  180   31.10000    15.58000  
2005  181   35.57000    18.09000  
2005  182   35.80000    22.13000  
2005  183   35.20000    23.18000  
2005  184   28.92000    15.15000  
2005  185   34.23000    17.71000  
2005  186   35.69000    19.72000  
2005  187   34.90000    19.77000  
2005  188   34.03000    21.13000  
2005  189   31.87000    20.48000  
2005  190   29.85000    18.86000  
2005  191   29.95000    13.90000  
2005  192   31.43000    17.32000  
2005  193   32.48000    19.57000  
2005  194   24.52000    13.94000  
2005  195   31.93000    16.20000  
2005  196   35.99000    20.08000  
2005  197   33.49000    19.78000  
2005  198   30.88000    18.13000  
2005  199   29.42000    16.84000  
2005  200   31.87000    17.17000  
2005  201   34.88000    20.33000  
2005  202   35.10000    20.97000  
2005  203   36.23000    22.98000  
2005  204   34.04000    19.27000  
2005  205   33.44000    20.36000  
2005  206   36.37000    20.10000  
2005  207   33.11000    20.11000  
2005  208   30.31000    13.98000  
2005  209   28.94000    16.43000  
2005  210   26.67000    19.04000  
2005  211   30.85000    16.20000  
2005  212   33.83000    20.02000  
2005  213   35.45000    19.16000  
2005  214   37.53000    22.47000  
2005  215   38.42000    24.14000  
2005  216   39.42000    22.07000  
2005  217   38.67000    23.33000  
2005  218   32.69000    16.76000  
2005  219   26.65000    16.73000  
2005  220   26.26000    13.18000  
2005  221   29.84000    15.10000  
2005  222   31.35000    16.06000  
2005  223   32.97000    17.19000  
2005  224   33.36000    18.08000  
2005  225   35.25000    18.60000  
2005  226   34.39000    19.56000  
2005  227   31.12000    16.90000  
2005  228   32.59000    16.70000  
2005  229   33.28000    18.33000  
2005  230   35.02000    20.77000  
2005  231   30.30000    13.23000  
2005  232   21.28000    12.46000  
2005  233   28.53000    14.74000  
2005  234   30.38000    17.30000  
2005  235   30.93000    17.71000  
2005  236   31.84000    15.84000  
2005  237   24.77000     9.33000  
2005  238   26.06000    10.75000  
2005  239   30.22000    14.84000  
2005  240   22.43000     9.72000  
2005  241   17.41000     7.40000  
2005  242   25.39000     9.96000  
2005  243   28.78000    12.43000  
2005  244   27.55000    15.09000  
2005  245   28.05000    13.12000  
2005  246   26.15000    12.12000  
2005  247   26.00000    13.57000  
2005  248   26.63000    12.57000  
2005  249   27.13000    11.03000  
2005  250   25.14000     8.95000  
2005  251   20.13000     8.30000  
2005  252   21.21000     8.44000  
2005  253   26.10000    11.66000  
2005  254   29.69000    11.61000  
2005  255   30.93000    14.83000  
2005  256   30.97000    14.58000  
2005  257   28.19000    12.62000  
2005  258   28.90000    12.04000  
2005  259   29.88000    10.70000  
2005  260   27.89000    12.89000  
2005  261   30.04000    13.85000  
2005  262   29.20000    13.89000  
2005  263   27.80000    13.71000  
2005  264   23.23000    12.38000  
2005  265   20.35000     9.05000  
2005  266   19.07000     9.43000  
2005  267   19.68000     8.00000  
2005  268   17.95000     7.56000  
2005  269   16.63000     7.51000  
2005  270   20.54000     7.99000  
2005  271   26.24000    10.05000  
2005  272   26.35000     9.76000  
2005  273   27.91000    11.36000  
2005  274   30.38000    11.08000  
2005  275   25.83000    10.74000  
2005  276   13.24000     8.11000  
2005  277   15.84000     6.95000  
2005  278   17.74000     5.40000  
2005  279   18.77000     6.06000  
2005  280   15.73000     4.47000  
2005  281   18.95000     2.63000  
2005  282   15.68000     1.41000  
2005  283   17.64000     2.28000  
2005  284   19.22000     3.53000  
2005  285   21.22000     6.46000  
2005  286   18.61000     2.61000  
2005  287   20.38000     4.49000  
2005  288   19.54000     3.12000  
2005  289   19.17000     2.69000  
2005  290   15.33000     3.40000  
2005  291   18.39000     3.75000  
2005  292   20.84000     4.75000  
2005  293   21.03000     3.83000  
2005  294    6.89000    -2.24000  
2005  295    6.29000    -6.82000  
2005  296    8.66000    -3.97000  
2005  297   13.39000    -3.79000  
2005  298   13.16000    -3.26000  
2005  299   13.44000    -3.82000  
2005  300   12.68000    -3.84000  
2005  301   12.64000    -1.24000  
2005  302   12.21000    -3.26000  
2005  303   11.39000    -1.30000  
2005  304   12.73000    -2.43000  
2005  305   11.41000    -1.79000  
2005  306   13.23000    -0.34000  
2005  307   11.84000    -1.62000  
2005  308   11.31000    -0.22000  
2005  309   11.86000    -0.83000  
2005  310   12.39000    -1.48000  
2005  311   10.36000    -2.20000  
2005  312   11.32000    -2.59000  
2005  313   11.09000    -2.09000  
2005  314    6.28000    -2.07000  
2005  315    7.87000    -3.03000  
2005  316    1.09000    -8.81000  
2005  317    2.53000    -8.40000  
2005  318    2.05000    -7.70000  
2005  319    2.86000    -7.46000  
2005  320    1.56000   -10.30000  
2005  321    0.38000   -12.32000  
2005  322    2.19000   -10.49000  
2005  323    4.44000   -10.58000  
2005  324    5.04000    -9.16000  
2005  325    4.08000    -9.14000  
2005  326    3.07000    -8.45000  
2005  327    1.92000    -9.50000  
2005  328    4.05000    -8.61000  
2005  329    1.54000   -12.33000  
2005  330    1.58000   -12.38000  
2005  331    2.76000    -9.09000  
2005  332    3.57000    -8.31000  
2005  333    4.71000    -8.66000  
2005  334    2.67000    -6.22000  
2005  335    5.03000    -5.78000  
2005  336    0.28000   -13.35000  
2005  337  -10.93000   -22.12000  
2005  338  -10.48000   -21.62000  
2005  339   -4.17000   -17.46000  
2005  340   -2.79000   -11.79000  
2005  341   -0.68000    -8.38000  
2005  342    4.95000    -2.95000  
2005  343    4.50000   -10.23000  
2005  344    1.69000   -10.92000  
2005  345    1.84000    -8.77000  
2005  346   -2.46000   -13.66000  
2005  347   -1.82000   -13.30000  
2005  348   -1.05000   -15.46000  
2005  349   -1.16000   -15.36000  
2005  350   -1.22000   -13.84000  
2005  351   -2.16000   -13.74000  
2005  352   -0.11000   -12.06000  
2005  353   -3.16000   -12.75000  
2005  354   -6.64000   -21.33000  
2005  355  -14.87000   -22.80000  
2005  356  -10.26000   -22.26000  
2005  357   -5.19000   -19.24000  
2005  358   -5.35000   -18.52000  
2005  359   -7.47000   -16.53000  
2005  360   -5.06000   -12.99000  
2005  361   -9.84000   -20.85000  
2005  362  -11.87000   -22.63000  
2005  363  -11.62000   -24.64000  
2005  364   -8.53000   -23.82000  
2005  365   -7.63000   -23.04000  
2006    1   -8.29000   -23.29000  
2006    2   -8.61000   -21.94000  
2006    3   -8.71000   -20.60000  
2006    4   -7.10000   -19.58000  
2006    5   -3.53000   -18.04000  
2006    6   -3.70000   -14.25000  
2006    7   -3.76000   -14.71000  
2006    8   -4.72000   -19.37000  
2006    9   -7.02000   -17.97000  
2006   10   -5.06000   -18.71000  
2006   11   -5.72000   -18.45000  
2006   12   -6.84000   -18.11000  
2006   13   -6.25000   -21.37000  
2006   14   -7.43000   -20.78000  
2006   15   -8.94000   -20.37000  
2006   16   -8.09000   -19.42000  
2006   17   -7.71000   -19.97000  
2006   18   -7.47000   -19.00000  
2006   19   -6.55000   -15.02000  
2006   20  -12.24000   -25.40000  
2006   21  -14.06000   -33.58000  
2006   22  -17.93000   -32.93000  
2006   23  -17.05000   -30.38000  
2006   24  -16.79000   -29.94000  
2006   25  -15.42000   -27.21000  
2006   26  -13.44000   -27.20000  
2006   27  -14.34000   -28.92000  
2006   28  -14.82000   -28.36000  
2006   29  -12.64000   -26.00000  
2006   30  -13.99000   -24.89000  
2006   31  -14.30000   -27.36000  
2006   32  -13.85000   -27.47000  
2006   33  -11.47000   -24.03000  
2006   34  -13.85000   -23.37000  
2006   35  -10.29000   -23.46000  
2006   36  -10.27000   -23.07000  
2006   37  -11.95000   -24.86000  
2006   38  -10.70000   -24.27000  
2006   39   -8.38000   -22.00000  
2006   40   -6.90000   -24.11000  
2006   41  -10.64000   -24.37000  
2006   42  -10.91000   -24.32000  
2006   43   -9.78000   -22.06000  
2006   44   -6.73000   -17.94000  
2006   45   -6.73000   -18.22000  
2006   46   -6.11000   -18.53000  
2006   47   -3.13000   -16.53000  
2006   48   -1.39000   -14.54000  
2006   49    1.67000   -13.41000  
2006   50    5.80000   -11.71000  
2006   51    3.38000    -9.22000  
2006   52   -1.06000   -10.64000  
2006   53    1.31000    -9.27000  
2006   54   -1.03000    -9.33000  
2006   55   -0.83000   -18.10000  
2006   56   -1.54000   -16.91000  
2006   57    0.72000   -12.71000  
2006   58    4.95000    -8.85000  
2006   59    7.61000    -8.14000  
2006   60    4.58000   -10.60000  
2006   61    8.69000    -7.14000  
2006   62   12.22000    -5.52000  
2006   63   12.49000    -4.64000  
2006   64    9.76000    -4.04000  
2006   65    6.60000    -5.94000  
2006   66   10.32000    -4.91000  
2006   67   13.31000    -1.51000  
2006   68   15.27000     1.43000  
2006   69   14.99000     3.00000  
2006   70    9.41000    -6.44000  
2006   71    4.21000    -8.21000  
2006   72   11.45000    -3.38000  
2006   73    8.45000    -5.24000  
2006   74   14.03000    -2.95000  
2006   75   16.73000     1.25000  
2006   76   16.45000    -3.37000  
2006   77    7.97000    -4.59000  
2006   78   10.97000    -1.71000  
2006   79    8.79000    -3.72000  
2006   80   10.76000    -5.26000  
2006   81   10.48000    -5.03000  
2006   82   15.75000    -0.21000  
2006   83   15.41000     0.11000  
2006   84   18.67000     1.30000  
2006   85   13.97000    -1.94000  
2006   86    6.81000    -3.51000  
2006   87    6.75000    -4.07000  
2006   88    5.33000    -3.59000  
2006   89    5.78000    -3.10000  
2006   90    3.02000    -6.18000  
2006   91    8.56000    -5.16000  
2006   92   13.54000    -3.04000  
2006   93   15.20000    -1.00000  
2006   94   17.06000     0.94000  
2006   95   17.58000     0.28000  
2006   96   19.44000     3.64000  
2006   97   17.74000     5.50000  
2006   98   19.70000     5.83000  
2006   99   11.20000    -0.66000  
2006  100   12.71000    -0.18000  
2006  101   15.08000     1.05000  
2006  102   16.50000     1.89000  
2006  103   20.17000     2.94000  
2006  104   21.43000     7.69000  
2006  105   24.50000     8.86000  
2006  106   25.98000     8.33000  
2006  107   27.81000    10.32000  
2006  108   22.34000     2.84000  
2006  109   13.37000    -0.72000  
2006  110    7.26000    -0.38000  
2006  111    9.82000    -3.53000  
2006  112   13.75000    -1.81000  
2006  113   19.66000     1.98000  
2006  114   22.94000     6.03000  
2006  115   25.04000    10.04000  
2006  116   25.27000    10.67000  
2006  117   28.10000    12.55000  
2006  118   28.57000    10.43000  
2006  119   16.34000     7.13000  
2006  120   23.23000    10.13000  
2006  121   15.27000     2.21000  
2006  122    9.82000     0.79000  
2006  123   15.95000     1.87000  
2006  124   21.23000     6.07000  
2006  125   27.29000    12.91000  
2006  126   22.82000     7.45000  
2006  127   20.88000     9.09000  
2006  128   13.79000     3.06000  
2006  129   17.78000     3.14000  
2006  130   20.72000     4.55000  
2006  131   20.43000     5.97000  
2006  132   24.77000     8.97000  
2006  133   30.95000    14.98000  
2006  134   31.81000    14.42000  
2006  135   30.77000    15.37000  
2006  136   25.15000     9.57000  
2006  137   25.28000     8.08000  
2006  138   25.25000    11.15000  
2006  139   27.18000     6.86000  
2006  140   25.06000    11.51000  
2006  141   27.11000    14.02000  
2006  142   29.81000    13.41000  
2006  143   30.85000    15.39000  
2006  144   33.13000    17.95000  
2006  145   32.91000    13.85000  
2006  146   23.54000     9.34000  
2006  147   30.13000    14.10000  
2006  148   23.40000     5.39000  
2006  149   23.94000     7.57000  
2006  150   30.53000    15.43000  
2006  151   29.86000    13.00000  
2006  152   29.53000    12.05000  
2006  153   29.02000    14.08000  
2006  154   31.78000    17.45000  
2006  155   29.42000    13.39000  
2006  156   24.10000    12.47000  
2006  157   30.46000    17.00000  
2006  158   33.86000    17.52000  
2006  159   35.21000    19.02000  
2006  160   36.31000    19.21000  
2006  161   35.42000    19.35000  
2006  162   37.60000    19.60000  
2006  163   25.91000    13.08000  
2006  164   29.08000    12.81000  
2006  165   27.14000    15.18000  
2006  166   30.69000    12.63000  
2006  167   28.63000    12.17000  
2006  168   29.87000    16.48000  
2006  169   32.61000    17.39000  
2006  170   26.83000    15.13000  
2006  171   30.13000    15.99000  
2006  172   25.15000    12.21000  
2006  173   25.83000    12.28000  
2006  174   30.47000    15.71000  
2006  175   33.23000    16.32000  
2006  176   33.53000    17.63000  
2006  177   33.70000    19.50000  
2006  178   28.30000    15.79000  
2006  179   23.85000    15.14000  
2006  180   31.10000    15.58000  
2006  181   35.57000    18.09000  
2006  182   35.80000    22.13000  
2006  183   35.20000    23.18000  
2006  184   28.92000    15.15000  
2006  185   34.23000    17.71000  
2006  186   35.69000    19.72000  
2006  187   34.90000    19.77000  
2006  188   34.03000    21.13000  
2006  189   31.87000    20.48000  
2006  190   29.85000    18.86000  
2006  191   29.95000    13.90000  
2006  192   31.43000    17.32000  
2006  193   32.48000    19.57000  
2006  194   24.52000    13.94000  
2006  195   31.93000    16.20000  
2006  196   35.99000    20.08000  
2006  197   33.49000    19.78000  
2006  198   30.88000    18.13000  
2006  199   29.42000    16.84000  
2006  200   31.87000    17.17000  
2006  201   34.88000    20.33000  
2006  202   35.10000    20.97000  
2006  203   36.23000    22.98000  
2006  204   34.04000    19.27000  
2006  205   33.44000    20.36000  
2006  206   36.37000    20.10000  
2006  207   33.11000    20.11000  
2006  208   30.31000    13.98000  
2006  209   28.94000    16.43000  
2006  210   26.67000    19.04000  
2006  211   30.85000    16.20000  
2006  212   33.83000    20.02000  
2006  213   35.45000    19.16000  
2006  214   37.53000    22.47000  
2006  215   38.42000    24.14000  
2006  216   39.42000    22.07000  
2006  217   38.67000    23.33000  
2006  218   32.69000    16.76000  
2006  219   26.65000    16.73000  
2006  220   26.26000    13.18000  
2006  221   29.84000    15.10000  
2006  222   31.35000    16.06000  
2006  223   32.97000    17.19000  
2006  224   33.36000    18.08000  
2006  225   35.25000    18.60000  
2006  226   34.39000    19.56000  
2006  227   31.12000    16.90000  
2006  228   32.59000    16.70000  
2006  229   33.28000    18.33000  
2006  230   35.02000    20.77000  
2006  231   30.30000    13.23000  
2006  232   21.28000    12.46000  
2006  233   28.53000    14.74000  
2006  234   30.38000    17.30000  
2006  235   30.93000    17.71000  
2006  236   31.84000    15.84000  
2006  237   24.77000     9.33000  
2006  238   26.06000    10.75000  
2006  239   30.22000    14.84000  
2006  240   22.43000     9.72000  
2006  241   17.41000     7.40000  
2006  242   25.39000     9.96000  
2006  243   28.78000    12.43000  
2006  244   27.55000    15.09000  
2006  245   28.05000    13.12000  
2006  246   26.15000    12.12000  
2006  247   26.00000    13.57000  
2006  248   26.63000    12.57000  
2006  249   27.13000    11.03000  
2006  250   25.14000     8.95000  
2006  251   20.13000     8.30000  
2006  252   21.21000     8.44000  
2006  253   26.10000    11.66000  
2006  254   29.69000    11.61000  
2006  255   30.93000    14.83000  
2006  256   30.97000    14.58000  
2006  257   28.19000    12.62000  
2006  258   28.90000    12.04000  
2006  259   29.88000    10.70000  
2006  260   27.89000    12.89000  
2006  261   30.04000    13.85000  
2006  262   29.20000    13.89000  
2006  263   27.80000    13.71000  
2006  264   23.23000    12.38000  
2006  265   20.35000     9.05000  
2006  266   19.07000     9.43000  
2006  267   19.68000     8.00000  
2006  268   17.95000     7.56000  
2006  269   16.63000     7.51000  
2006  270   20.54000     7.99000  
2006  271   26.24000    10.05000  
2006  272   26.35000     9.76000  
2006  273   27.91000    11.36000  
2006  274   30.38000    11.08000  
2006  275   25.83000    10.74000  
2006  276   13.24000     8.11000  
2006  277   15.84000     6.95000  
2006  278   17.74000     5.40000  
2006  279   18.77000     6.06000  
2006  280   15.73000     4.47000  
2006  281   18.95000     2.63000  
2006  282   15.68000     1.41000  
2006  283   17.64000     2.28000  
2006  284   19.22000     3.53000  
2006  285   21.22000     6.46000  
2006  286   18.61000     2.61000  
2006  287   20.38000     4.49000  
2006  288   19.54000     3.12000  
2006  289   19.17000     2.69000  
2006  290   15.33000     3.40000  
2006  291   18.39000     3.75000  
2006  292   20.84000     4.75000  
2006  293   21.03000     3.83000  
2006  294    6.89000    -2.24000  
2006  295    6.29000    -6.82000  
2006  296    8.66000    -3.97000  
2006  297   13.39000    -3.79000  
2006  298   13.16000    -3.26000  
2006  299   13.44000    -3.82000  
2006  300   12.68000    -3.84000  
2006  301   12.64000    -1.24000  
2006  302   12.21000    -3.26000  
2006  303   11.39000    -1.30000  
2006  304   12.73000    -2.43000  
2006  305   11.41000    -1.79000  
2006  306   13.23000    -0.34000  
2006  307   11.84000    -1.62000  
2006  308   11.31000    -0.22000  
2006  309   11.86000    -0.83000  
2006  310   12.39000    -1.48000  
2006  311   10.36000    -2.20000  
2006  312   11.32000    -2.59000  
2006  313   11.09000    -2.09000  
2006  314    6.28000    -2.07000  
2006  315    7.87000    -3.03000  
2006  316    1.09000    -8.81000  
2006  317    2.53000    -8.40000  
2006  318    2.05000    -7.70000  
2006  319    2.86000    -7.46000  
2006  320    1.56000   -10.30000  
2006  321    0.38000   -12.32000  
2006  322    2.19000   -10.49000  
2006  323    4.44000   -10.58000  
2006  324    5.04000    -9.16000  
2006  325    4.08000    -9.14000  
2006  326    3.07000    -8.45000  
2006  327    1.92000    -9.50000  
2006  328    4.05000    -8.61000  
2006  329    1.54000   -12.33000  
2006  330    1.58000   -12.38000  
2006  331    2.76000    -9.09000  
2006  332    3.57000    -8.31000  
2006  333    4.71000    -8.66000  
2006  334    2.67000    -6.22000  
2006  335    5.03000    -5.78000  
2006  336    0.28000   -13.35000  
2006  337  -10.93000   -22.12000  
2006  338  -10.48000   -21.62000  
2006  339   -4.17000   -17.46000  
2006  340   -2.79000   -11.79000  
2006  341   -0.68000    -8.38000  
2006  342    4.95000    -2.95000  
2006  343    4.50000   -10.23000  
2006  344    1.69000   -10.92000  
2006  345    1.84000    -8.77000  
2006  346   -2.46000   -13.66000  
2006  347   -1.82000   -13.30000  
2006  348   -1.05000   -15.46000  
2006  349   -1.16000   -15.36000  
2006  350   -1.22000   -13.84000  
2006  351   -2.16000   -13.74000  
2006  352   -0.11000   -12.06000  
2006  353   -3.16000   -12.75000  
2006  354   -6.64000   -21.33000  
2006  355  -14.87000   -22.80000  
2006  356  -10.26000   -22.26000  
2006  357   -5.19000   -19.24000  
2006  358   -5.35000   -18.52000  
2006  359   -7.47000   -16.53000  
2006  360   -5.06000   -12.99000  
2006  361   -9.84000   -20.85000  
2006  362  -11.87000   -22.63000  
2006  363  -11.62000   -24.64000  
2006  364   -8.53000   -23.82000  
2006  365   -7.63000   -23.04000  
2007    1   -8.29000   -23.29000  
2007    2   -8.61000   -21.94000  
2007    3   -8.71000   -20.60000  
2007    4   -7.10000   -19.58000  
2007    5   -3.53000   -18.04000  
2007    6   -3.70000   -14.25000  
2007    7   -3.76000   -14.71000  
2007    8   -4.72000   -19.37000  
2007    9   -7.02000   -17.97000  
2007   10   -5.06000   -18.71000  
2007   11   -5.72000   -18.45000  
2007   12   -6.84000   -18.11000  
2007   13   -6.25000   -21.37000  
2007   14   -7.43000   -20.78000  
2007   15   -8.94000   -20.37000  
2007   16   -8.09000   -19.42000  
2007   17   -7.71000   -19.97000  
2007   18   -7.47000   -19.00000  
2007   19   -6.55000   -15.02000  
2007   20  -12.24000   -25.40000  
2007   21  -14.06000   -33.58000  
2007   22  -17.93000   -32.93000  
2007   23  -17.05000   -30.38000  
2007   24  -16.79000   -29.94000  
2007   25  -15.42000   -27.21000  
2007   26  -13.44000   -27.20000  
2007   27  -14.34000   -28.92000  
2007   28  -14.82000   -28.36000  
2007   29  -12.64000   -26.00000  
2007   30  -13.99000   -24.89000  
2007   31  -14.30000   -27.36000  
2007   32  -13.85000   -27.47000  
2007   33  -11.47000   -24.03000  
2007   34  -13.85000   -23.37000  
2007   35  -10.29000   -23.46000  
2007   36  -10.27000   -23.07000  
2007   37  -11.95000   -24.86000  
2007   38  -10.70000   -24.27000  
2007   39   -8.38000   -22.00000  
2007   40   -6.90000   -24.11000  
2007   41  -10.64000   -24.37000  
2007   42  -10.91000   -24.32000  
2007   43   -9.78000   -22.06000  
2007   44   -6.73000   -17.94000  
2007   45   -6.73000   -18.22000  
2007   46   -6.11000   -18.53000  
2007   47   -3.13000   -16.53000  
2007   48   -1.39000   -14.54000  
2007   49    1.67000   -13.41000  
2007   50    5.80000   -11.71000  
2007   51    3.38000    -9.22000  
2007   52   -1.06000   -10.64000  
2007   53    1.31000    -9.27000  
2007   54   -1.03000    -9.33000  
2007   55   -0.83000   -18.10000  
2007   56   -1.54000   -16.91000  
2007   57    0.72000   -12.71000  
2007   58    4.95000    -8.85000  
2007   59    7.61000    -8.14000  
2007   60    4.58000   -10.60000  
2007   61    8.69000    -7.14000  
2007   62   12.22000    -5.52000  
2007   63   12.49000    -4.64000  
2007   64    9.76000    -4.04000  
2007   65    6.60000    -5.94000  
2007   66   10.32000    -4.91000  
2007   67   13.31000    -1.51000  
2007   68   15.27000     1.43000  
2007   69   14.99000     3.00000  
2007   70    9.41000    -6.44000  
2007   71    4.21000    -8.21000  
2007   72   11.45000    -3.38000  
2007   73    8.45000    -5.24000  
2007   74   14.03000    -2.95000  
2007   75   16.73000     1.25000  
2007   76   16.45000    -3.37000  
2007   77    7.97000    -4.59000  
2007   78   10.97000    -1.71000  
2007   79    8.79000    -3.72000  
2007   80   10.76000    -5.26000  
2007   81   10.48000    -5.03000  
2007   82   15.75000    -0.21000  
2007   83   15.41000     0.11000  
2007   84   18.67000     1.30000  
2007   85   13.97000    -1.94000  
2007   86    6.81000    -3.51000  
2007   87    6.75000    -4.07000  
2007   88    5.33000    -3.59000  
2007   89    5.78000    -3.10000  
2007   90    3.02000    -6.18000  
2007   91    8.56000    -5.16000  
2007   92   13.54000    -3.04000  
2007   93   15.20000    -1.00000  
2007   94   17.06000     0.94000  
2007   95   17.58000     0.28000  
2007   96   19.44000     3.64000  
2007   97   17.74000     5.50000  
2007   98   19.70000     5.83000  