172153tmp.tem: Temperature data - file written by SWAT+ editor 2025-11-04 13:23:50.827490
nbyr     tstep       lat       lon      elev
  14         0    42.781    98.031  1150.000
2005    1  -10.48000   -25.36000  
2005    2   -6.95000   -24.03000  
2005    3   -7.31000   -22.44000  
2005    4   -6.82000   -18.65000  
2005    5   -3.63000   -17.12000  
2005    6   -2.80000   -13.33000  
2005    7   -2.44000   -13.48000  
2005    8   -2.92000   -15.27000  
2005    9   -6.06000   -15.28000  
2005   10   -6.35000   -16.38000  
2005   11   -6.68000   -17.96000  
2005   12   -6.40000   -20.17000  
2005   13   -5.40000   -19.48000  
2005   14   -6.42000   -19.95000  
2005   15   -8.77000   -20.02000  
2005   16   -5.74000   -19.53000  
2005   17   -7.82000   -19.21000  
2005   18  -10.51000   -19.36000  
2005   19  -11.35000   -21.25000  
2005   20  -16.65000   -27.64000  
2005   21  -14.86000   -30.08000  
2005   22  -17.28000   -29.89000  
2005   23  -20.82000   -29.64000  
2005   24  -21.15000   -29.87000  
2005   25  -19.21000   -28.78000  
2005   26  -15.79000   -28.58000  
2005   27  -12.82000   -27.59000  
2005   28  -13.53000   -27.15000  
2005   29  -11.74000   -24.95000  
2005   30  -13.98000   -27.39000  
2005   31  -11.76000   -28.84000  
2005   32  -10.21000   -28.52000  
2005   33   -6.95000   -22.61000  
2005   34  -10.40000   -23.30000  
2005   35   -7.25000   -25.90000  
2005   36   -9.85000   -24.82000  
2005   37  -12.52000   -27.71000  
2005   38   -8.60000   -26.37000  
2005   39   -7.39000   -25.89000  
2005   40   -6.15000   -19.26000  
2005   41   -9.62000   -21.98000  
2005   42   -8.51000   -21.77000  
2005   43   -7.93000   -19.30000  
2005   44   -3.53000   -19.70000  
2005   45   -6.35000   -19.98000  
2005   46   -6.38000   -17.71000  
2005   47   -2.53000   -16.46000  
2005   48   -1.10000   -14.63000  
2005   49    3.49000   -12.26000  
2005   50    9.15000    -8.72000  
2005   51    5.01000    -6.74000  
2005   52    2.58000    -9.85000  
2005   53   -1.75000    -9.69000  
2005   54   -1.30000    -7.38000  
2005   55   -0.60000   -15.91000  
2005   56   -0.66000   -15.63000  
2005   57    3.15000   -15.39000  
2005   58    4.78000    -7.03000  
2005   59    9.30000    -5.82000  
2005   60    7.37000    -9.19000  
2005   61   10.25000    -8.70000  
2005   62   11.28000    -7.90000  
2005   63   11.93000    -4.27000  
2005   64    9.85000    -3.34000  
2005   65    6.10000    -5.33000  
2005   66   10.64000    -4.49000  
2005   67   14.52000    -3.00000  
2005   68   15.37000    -0.36000  
2005   69   14.35000     2.45000  
2005   70    5.79000    -7.93000  
2005   71    4.47000    -7.56000  
2005   72   13.54000    -3.73000  
2005   73    8.02000    -6.49000  
2005   74   15.07000    -5.28000  
2005   75   18.73000     1.21000  
2005   76   16.20000    -0.23000  
2005   77    9.20000    -2.60000  
2005   78   10.36000    -1.71000  
2005   79    7.09000    -3.67000  
2005   80   10.81000    -4.44000  
2005   81   12.47000    -5.84000  
2005   82   15.80000    -4.16000  
2005   83   17.29000    -0.21000  
2005   84   18.38000     1.08000  
2005   85   10.36000    -6.32000  
2005   86    3.86000    -6.35000  
2005   87    7.43000    -4.44000  
2005   88    2.40000    -3.84000  
2005   89    1.75000    -5.75000  
2005   90    4.71000    -5.10000  
2005   91    9.14000    -7.31000  
2005   92   14.31000    -5.70000  
2005   93   15.23000    -4.70000  
2005   94   15.47000    -3.74000  
2005   95   16.23000    -2.44000  
2005   96   18.84000    -0.74000  
2005   97   16.52000     3.58000  
2005   98   17.31000     4.15000  
2005   99   10.58000    -1.51000  
2005  100   11.40000     0.14000  
2005  101   13.46000    -0.07000  
2005  102   16.61000    -0.76000  
2005  103   19.09000     1.17000  
2005  104   22.04000     3.47000  
2005  105   24.15000     5.01000  
2005  106   23.17000     6.66000  
2005  107   26.15000     8.74000  
2005  108   18.60000    -2.03000  
2005  109    6.76000    -4.67000  
2005  110    4.39000    -3.60000  
2005  111    8.45000    -3.60000  
2005  112   13.43000    -2.19000  
2005  113   19.61000     0.57000  
2005  114   23.28000     4.40000  
2005  115   23.75000     9.55000  
2005  116   24.63000    10.84000  
2005  117   28.13000    12.45000  
2005  118   27.60000     8.01000  
2005  119   15.95000     5.10000  
2005  120   23.29000     6.76000  
2005  121   13.21000     2.73000  
2005  122    6.33000    -0.68000  
2005  123   16.43000     2.62000  
2005  124   23.74000     5.59000  
2005  125   26.51000    10.27000  
2005  126   20.91000     8.42000  
2005  127   19.60000     8.18000  
2005  128   14.67000     3.27000  
2005  129   20.30000     4.75000  
2005  130   24.01000     6.14000  
2005  131   23.73000     7.58000  
2005  132   27.00000    10.06000  
2005  133   31.60000    14.15000  
2005  134   32.57000    14.96000  
2005  135   31.20000    16.71000  
2005  136   27.18000    12.61000  
2005  137   26.64000    11.46000  
2005  138   25.02000    11.00000  
2005  139   26.61000    10.68000  
2005  140   26.60000    13.91000  
2005  141   27.08000    13.97000  
2005  142   29.00000    13.58000  
2005  143   30.50000    15.36000  
2005  144   32.95000    17.97000  
2005  145   28.82000    11.95000  
2005  146   23.18000     9.43000  
2005  147   29.02000    14.00000  
2005  148   24.27000     9.85000  
2005  149   26.26000    10.33000  
2005  150   30.97000    15.91000  
2005  151   31.00000    15.70000  
2005  152   30.78000    15.40000  
2005  153   31.41000    16.50000  
2005  154   34.43000    18.34000  
2005  155   29.32000    17.52000  
2005  156   26.67000    14.03000  
2005  157   30.29000    16.77000  
2005  158   34.08000    18.45000  
2005  159   35.75000    18.91000  
2005  160   36.30000    21.60000  
2005  161   34.07000    19.00000  
2005  162   35.97000    16.74000  
2005  163   25.91000    12.93000  
2005  164   25.61000    11.78000  
2005  165   27.67000    12.86000  
2005  166   29.19000    12.75000  
2005  167   28.77000    16.12000  
2005  168   30.52000    16.76000  
2005  169   27.87000    15.88000  
2005  170   25.91000    12.98000  
2005  171   29.77000    16.73000  
2005  172   22.95000    13.40000  
2005  173   27.53000    14.22000  
2005  174   30.84000    17.29000  
2005  175   32.92000    20.33000  
2005  176   33.48000    21.89000  
2005  177   33.45000    20.53000  
2005  178   28.69000    18.68000  
2005  179   27.30000    16.50000  
2005  180   32.16000    17.25000  
2005  181   35.36000    19.90000  
2005  182   35.79000    22.42000  
2005  183   33.17000    21.39000  
2005  184   29.10000    17.26000  
2005  185   34.41000    19.84000  
2005  186   34.49000    22.08000  
2005  187   32.68000    17.85000  
2005  188   32.78000    21.01000  
2005  189   29.36000    18.15000  
2005  190   27.41000    18.03000  
2005  191   28.73000    14.57000  
2005  192   30.70000    17.13000  
2005  193   31.02000    18.95000  
2005  194   31.14000    18.01000  
2005  195   33.55000    18.69000  
2005  196   36.31000    21.41000  
2005  197   28.24000    17.92000  
2005  198   27.73000    17.97000  
2005  199   27.36000    17.23000  
2005  200   32.34000    19.92000  
2005  201   33.99000    21.89000  
2005  202   31.96000    18.59000  
2005  203   33.90000    21.62000  
2005  204   31.52000    21.32000  
2005  205   33.45000    22.55000  
2005  206   32.28000    18.89000  
2005  207   30.07000    17.47000  
2005  208   28.84000    16.49000  
2005  209   29.40000    18.53000  
2005  210   26.19000    20.06000  
2005  211   31.33000    20.46000  
2005  212   33.31000    19.20000  
2005  213   35.78000    18.71000  
2005  214   37.89000    21.92000  
2005  215   38.57000    23.17000  
2005  216   38.94000    22.52000  
2005  217   37.12000    19.30000  
2005  218   27.61000    16.45000  
2005  219   27.63000    16.38000  
2005  220   31.23000    14.59000  
2005  221   30.61000    16.21000  
2005  222   31.68000    17.44000  
2005  223   33.03000    16.86000  
2005  224   33.07000    16.60000  
2005  225   34.29000    17.69000  
2005  226   33.78000    20.31000  
2005  227   30.44000    15.78000  
2005  228   32.39000    17.57000  
2005  229   32.25000    18.12000  
2005  230   32.26000    20.22000  
2005  231   27.55000    13.01000  
2005  232   17.94000    11.82000  
2005  233   28.13000    14.30000  
2005  234   29.33000    16.75000  
2005  235   30.10000    16.60000  
2005  236   30.45000    13.92000  
2005  237   24.84000     9.90000  
2005  238   27.72000    11.64000  
2005  239   30.27000    13.02000  
2005  240   13.79000     9.21000  
2005  241   20.10000     5.65000  
2005  242   26.56000     8.27000  
2005  243   28.92000    12.67000  
2005  244   26.42000    13.61000  
2005  245   27.19000    12.69000  
2005  246   25.77000    11.64000  
2005  247   25.83000    12.89000  
2005  248   26.87000    13.59000  
2005  249   27.41000    13.53000  
2005  250   21.74000     6.79000  
2005  251   19.43000     6.64000  
2005  252   20.96000     7.15000  
2005  253   26.19000    10.04000  
2005  254   29.62000     9.72000  
2005  255   29.96000    11.51000  
2005  256   29.19000    13.13000  
2005  257   28.21000    10.21000  
2005  258   28.14000    11.07000  
2005  259   29.75000    10.10000  
2005  260   27.72000    11.68000  
2005  261   30.76000    13.27000  
2005  262   28.90000    14.23000  
2005  263   26.55000    10.00000  
2005  264   19.56000     9.62000  
2005  265   20.41000     9.07000  
2005  266   17.62000     6.77000  
2005  267   15.83000     5.42000  
2005  268   18.19000     6.15000  
2005  269   17.57000     7.32000  
2005  270   23.49000     7.70000  
2005  271   27.65000     8.66000  
2005  272   27.80000     7.76000  
2005  273   27.88000     9.09000  
2005  274   28.75000    11.13000  
2005  275   25.47000    11.30000  
2005  276   16.07000     8.28000  
2005  277   19.40000     6.07000  
2005  278   19.78000     5.95000  
2005  279   19.33000     7.47000  
2005  280   16.09000     1.67000  
2005  281   18.43000     1.20000  
2005  282   16.49000     0.28000  
2005  283   17.85000     0.85000  
2005  284   20.65000     3.29000  
2005  285   21.22000     5.04000  
2005  286   17.74000     4.21000  
2005  287   20.94000     4.72000  
2005  288   16.98000     2.63000  
2005  289   17.18000     2.67000  
2005  290   15.31000     2.71000  
2005  291   19.23000     1.73000  
2005  292   21.18000     1.21000  
2005  293   20.75000    -0.22000  
2005  294    5.09000    -3.01000  
2005  295    5.75000    -7.73000  
2005  296    8.84000    -6.95000  
2005  297   13.35000    -2.32000  
2005  298   12.78000    -1.46000  
2005  299   13.54000    -5.39000  
2005  300   11.54000    -4.89000  
2005  301   11.64000    -2.09000  
2005  302   11.71000    -3.19000  
2005  303   12.41000    -2.83000  
2005  304   12.43000    -3.57000  
2005  305   12.93000    -2.31000  
2005  306   13.16000    -1.28000  
2005  307   11.36000    -1.40000  
2005  308   11.29000    -0.72000  
2005  309   12.62000    -1.34000  
2005  310   12.92000    -1.30000  
2005  311   11.11000    -1.20000  
2005  312   12.94000    -1.62000  
2005  313   10.42000    -0.98000  
2005  314    6.16000    -1.89000  
2005  315    4.61000    -6.05000  
2005  316    0.60000    -9.01000  
2005  317    3.66000    -8.45000  
2005  318    0.87000    -7.41000  
2005  319    3.12000    -6.62000  
2005  320    0.48000   -10.23000  
2005  321    0.05000   -14.05000  
2005  322    2.42000   -13.33000  
2005  323    5.32000   -13.29000  
2005  324    4.44000   -12.52000  
2005  325    3.78000    -9.97000  
2005  326    3.81000    -8.26000  
2005  327    2.27000   -10.53000  
2005  328    5.50000    -9.97000  
2005  329    1.73000    -9.81000  
2005  330    4.66000   -11.80000  
2005  331    3.77000   -11.23000  
2005  332    6.32000    -5.44000  
2005  333    7.36000    -5.07000  
2005  334    3.22000    -4.66000  
2005  335    6.38000    -5.42000  
2005  336   -1.52000   -14.19000  
2005  337  -11.59000   -23.05000  
2005  338   -7.73000   -22.69000  
2005  339   -2.72000   -17.87000  
2005  340   -1.19000    -9.61000  
2005  341    1.14000    -7.25000  
2005  342    7.52000    -2.79000  
2005  343    5.50000   -10.81000  
2005  344    4.26000   -11.56000  
2005  345    3.42000    -7.28000  
2005  346   -1.12000   -12.17000  
2005  347   -0.73000   -14.02000  
2005  348    1.29000   -13.68000  
2005  349    2.06000   -11.54000  
2005  350   -0.04000   -14.71000  
2005  351    1.24000   -14.70000  
2005  352    1.90000   -10.34000  
2005  353   -2.86000   -11.90000  
2005  354   -4.73000   -19.38000  
2005  355  -14.77000   -21.21000  
2005  356   -9.09000   -20.49000  
2005  357   -3.61000   -17.46000  
2005  358   -5.79000   -17.43000  
2005  359   -8.00000   -16.43000  
2005  360   -6.28000   -14.42000  
2005  361  -13.98000   -21.73000  
2005  362  -11.17000   -22.35000  
2005  363  -10.28000   -23.44000  
2005  364  -10.90000   -23.16000  
2005  365  -12.22000   -23.47000  
2006    1  -10.48000   -25.36000  
2006    2   -6.95000   -24.03000  
2006    3   -7.31000   -22.44000  
2006    4   -6.82000   -18.65000  
2006    5   -3.63000   -17.12000  
2006    6   -2.80000   -13.33000  
2006    7   -2.44000   -13.48000  
2006    8   -2.92000   -15.27000  
2006    9   -6.06000   -15.28000  
2006   10   -6.35000   -16.38000  
2006   11   -6.68000   -17.96000  
2006   12   -6.40000   -20.17000  
2006   13   -5.40000   -19.48000  
2006   14   -6.42000   -19.95000  
2006   15   -8.77000   -20.02000  
2006   16   -5.74000   -19.53000  
2006   17   -7.82000   -19.21000  
2006   18  -10.51000   -19.36000  
2006   19  -11.35000   -21.25000  
2006   20  -16.65000   -27.64000  
2006   21  -14.86000   -30.08000  
2006   22  -17.28000   -29.89000  
2006   23  -20.82000   -29.64000  
2006   24  -21.15000   -29.87000  
2006   25  -19.21000   -28.78000  
2006   26  -15.79000   -28.58000  
2006   27  -12.82000   -27.59000  
2006   28  -13.53000   -27.15000  
2006   29  -11.74000   -24.95000  
2006   30  -13.98000   -27.39000  
2006   31  -11.76000   -28.84000  
2006   32  -10.21000   -28.52000  
2006   33   -6.95000   -22.61000  
2006   34  -10.40000   -23.30000  
2006   35   -7.25000   -25.90000  
2006   36   -9.85000   -24.82000  
2006   37  -12.52000   -27.71000  
2006   38   -8.60000   -26.37000  
2006   39   -7.39000   -25.89000  
2006   40   -6.15000   -19.26000  
2006   41   -9.62000   -21.98000  
2006   42   -8.51000   -21.77000  
2006   43   -7.93000   -19.30000  
2006   44   -3.53000   -19.70000  
2006   45   -6.35000   -19.98000  
2006   46   -6.38000   -17.71000  
2006   47   -2.53000   -16.46000  
2006   48   -1.10000   -14.63000  
2006   49    3.49000   -12.26000  
2006   50    9.15000    -8.72000  
2006   51    5.01000    -6.74000  
2006   52    2.58000    -9.85000  
2006   53   -1.75000    -9.69000  
2006   54   -1.30000    -7.38000  
2006   55   -0.60000   -15.91000  
2006   56   -0.66000   -15.63000  
2006   57    3.15000   -15.39000  
2006   58    4.78000    -7.03000  
2006   59    9.30000    -5.82000  
2006   60    7.37000    -9.19000  
2006   61   10.25000    -8.70000  
2006   62   11.28000    -7.90000  
2006   63   11.93000    -4.27000  
2006   64    9.85000    -3.34000  
2006   65    6.10000    -5.33000  
2006   66   10.64000    -4.49000  
2006   67   14.52000    -3.00000  
2006   68   15.37000    -0.36000  
2006   69   14.35000     2.45000  
2006   70    5.79000    -7.93000  
2006   71    4.47000    -7.56000  
2006   72   13.54000    -3.73000  
2006   73    8.02000    -6.49000  
2006   74   15.07000    -5.28000  
2006   75   18.73000     1.21000  
2006   76   16.20000    -0.23000  
2006   77    9.20000    -2.60000  
2006   78   10.36000    -1.71000  
2006   79    7.09000    -3.67000  
2006   80   10.81000    -4.44000  
2006   81   12.47000    -5.84000  
2006   82   15.80000    -4.16000  
2006   83   17.29000    -0.21000  
2006   84   18.38000     1.08000  
2006   85   10.36000    -6.32000  
2006   86    3.86000    -6.35000  
2006   87    7.43000    -4.44000  
2006   88    2.40000    -3.84000  
2006   89    1.75000    -5.75000  
2006   90    4.71000    -5.10000  
2006   91    9.14000    -7.31000  
2006   92   14.31000    -5.70000  
2006   93   15.23000    -4.70000  
2006   94   15.47000    -3.74000  
2006   95   16.23000    -2.44000  
2006   96   18.84000    -0.74000  
2006   97   16.52000     3.58000  
2006   98   17.31000     4.15000  
2006   99   10.58000    -1.51000  
2006  100   11.40000     0.14000  
2006  101   13.46000    -0.07000  
2006  102   16.61000    -0.76000  
2006  103   19.09000     1.17000  
2006  104   22.04000     3.47000  
2006  105   24.15000     5.01000  
2006  106   23.17000     6.66000  
2006  107   26.15000     8.74000  
2006  108   18.60000    -2.03000  
2006  109    6.76000    -4.67000  
2006  110    4.39000    -3.60000  
2006  111    8.45000    -3.60000  
2006  112   13.43000    -2.19000  
2006  113   19.61000     0.57000  
2006  114   23.28000     4.40000  
2006  115   23.75000     9.55000  
2006  116   24.63000    10.84000  
2006  117   28.13000    12.45000  
2006  118   27.60000     8.01000  
2006  119   15.95000     5.10000  
2006  120   23.29000     6.76000  
2006  121   13.21000     2.73000  
2006  122    6.33000    -0.68000  
2006  123   16.43000     2.62000  
2006  124   23.74000     5.59000  
2006  125   26.51000    10.27000  
2006  126   20.91000     8.42000  
2006  127   19.60000     8.18000  
2006  128   14.67000     3.27000  
2006  129   20.30000     4.75000  
2006  130   24.01000     6.14000  
2006  131   23.73000     7.58000  
2006  132   27.00000    10.06000  
2006  133   31.60000    14.15000  
2006  134   32.57000    14.96000  
2006  135   31.20000    16.71000  
2006  136   27.18000    12.61000  
2006  137   26.64000    11.46000  
2006  138   25.02000    11.00000  
2006  139   26.61000    10.68000  
2006  140   26.60000    13.91000  
2006  141   27.08000    13.97000  
2006  142   29.00000    13.58000  
2006  143   30.50000    15.36000  
2006  144   32.95000    17.97000  
2006  145   28.82000    11.95000  
2006  146   23.18000     9.43000  
2006  147   29.02000    14.00000  
2006  148   24.27000     9.85000  
2006  149   26.26000    10.33000  
2006  150   30.97000    15.91000  
2006  151   31.00000    15.70000  
2006  152   30.78000    15.40000  
2006  153   31.41000    16.50000  
2006  154   34.43000    18.34000  
2006  155   29.32000    17.52000  
2006  156   26.67000    14.03000  
2006  157   30.29000    16.77000  
2006  158   34.08000    18.45000  
2006  159   35.75000    18.91000  
2006  160   36.30000    21.60000  
2006  161   34.07000    19.00000  
2006  162   35.97000    16.74000  
2006  163   25.91000    12.93000  
2006  164   25.61000    11.78000  
2006  165   27.67000    12.86000  
2006  166   29.19000    12.75000  
2006  167   28.77000    16.12000  
2006  168   30.52000    16.76000  
2006  169   27.87000    15.88000  
2006  170   25.91000    12.98000  
2006  171   29.77000    16.73000  
2006  172   22.95000    13.40000  
2006  173   27.53000    14.22000  
2006  174   30.84000    17.29000  
2006  175   32.92000    20.33000  
2006  176   33.48000    21.89000  
2006  177   33.45000    20.53000  
2006  178   28.69000    18.68000  
2006  179   27.30000    16.50000  
2006  180   32.16000    17.25000  
2006  181   35.36000    19.90000  
2006  182   35.79000    22.42000  
2006  183   33.17000    21.39000  
2006  184   29.10000    17.26000  
2006  185   34.41000    19.84000  
2006  186   34.49000    22.08000  
2006  187   32.68000    17.85000  
2006  188   32.78000    21.01000  
2006  189   29.36000    18.15000  
2006  190   27.41000    18.03000  
2006  191   28.73000    14.57000  
2006  192   30.70000    17.13000  
2006  193   31.02000    18.95000  
2006  194   31.14000    18.01000  
2006  195   33.55000    18.69000  
2006  196   36.31000    21.41000  
2006  197   28.24000    17.92000  
2006  198   27.73000    17.97000  
2006  199   27.36000    17.23000  
2006  200   32.34000    19.92000  
2006  201   33.99000    21.89000  
2006  202   31.96000    18.59000  
2006  203   33.90000    21.62000  
2006  204   31.52000    21.32000  
2006  205   33.45000    22.55000  
2006  206   32.28000    18.89000  
2006  207   30.07000    17.47000  
2006  208   28.84000    16.49000  
2006  209   29.40000    18.53000  
2006  210   26.19000    20.06000  
2006  211   31.33000    20.46000  
2006  212   33.31000    19.20000  
2006  213   35.78000    18.71000  
2006  214   37.89000    21.92000  
2006  215   38.57000    23.17000  
2006  216   38.94000    22.52000  
2006  217   37.12000    19.30000  
2006  218   27.61000    16.45000  
2006  219   27.63000    16.38000  
2006  220   31.23000    14.59000  
2006  221   30.61000    16.21000  
2006  222   31.68000    17.44000  
2006  223   33.03000    16.86000  
2006  224   33.07000    16.60000  
2006  225   34.29000    17.69000  
2006  226   33.78000    20.31000  
2006  227   30.44000    15.78000  
2006  228   32.39000    17.57000  
2006  229   32.25000    18.12000  
2006  230   32.26000    20.22000  
2006  231   27.55000    13.01000  
2006  232   17.94000    11.82000  
2006  233   28.13000    14.30000  
2006  234   29.33000    16.75000  
2006  235   30.10000    16.60000  
2006  236   30.45000    13.92000  
2006  237   24.84000     9.90000  
2006  238   27.72000    11.64000  
2006  239   30.27000    13.02000  
2006  240   13.79000     9.21000  
2006  241   20.10000     5.65000  
2006  242   26.56000     8.27000  
2006  243   28.92000    12.67000  
2006  244   26.42000    13.61000  
2006  245   27.19000    12.69000  
2006  246   25.77000    11.64000  
2006  247   25.83000    12.89000  
2006  248   26.87000    13.59000  
2006  249   27.41000    13.53000  
2006  250   21.74000     6.79000  
2006  251   19.43000     6.64000  
2006  252   20.96000     7.15000  
2006  253   26.19000    10.04000  
2006  254   29.62000     9.72000  
2006  255   29.96000    11.51000  
2006  256   29.19000    13.13000  
2006  257   28.21000    10.21000  
2006  258   28.14000    11.07000  
2006  259   29.75000    10.10000  
2006  260   27.72000    11.68000  
2006  261   30.76000    13.27000  
2006  262   28.90000    14.23000  
2006  263   26.55000    10.00000  
2006  264   19.56000     9.62000  
2006  265   20.41000     9.07000  
2006  266   17.62000     6.77000  
2006  267   15.83000     5.42000  
2006  268   18.19000     6.15000  
2006  269   17.57000     7.32000  
2006  270   23.49000     7.70000  
2006  271   27.65000     8.66000  
2006  272   27.80000     7.76000  
2006  273   27.88000     9.09000  
2006  274   28.75000    11.13000  
2006  275   25.47000    11.30000  
2006  276   16.07000     8.28000  
2006  277   19.40000     6.07000  
2006  278   19.78000     5.95000  
2006  279   19.33000     7.47000  
2006  280   16.09000     1.67000  
2006  281   18.43000     1.20000  
2006  282   16.49000     0.28000  
2006  283   17.85000     0.85000  
2006  284   20.65000     3.29000  
2006  285   21.22000     5.04000  
2006  286   17.74000     4.21000  
2006  287   20.94000     4.72000  
2006  288   16.98000     2.63000  
2006  289   17.18000     2.67000  
2006  290   15.31000     2.71000  
2006  291   19.23000     1.73000  
2006  292   21.18000     1.21000  
2006  293   20.75000    -0.22000  
2006  294    5.09000    -3.01000  
2006  295    5.75000    -7.73000  
2006  296    8.84000    -6.95000  
2006  297   13.35000    -2.32000  
2006  298   12.78000    -1.46000  
2006  299   13.54000    -5.39000  
2006  300   11.54000    -4.89000  
2006  301   11.64000    -2.09000  
2006  302   11.71000    -3.19000  
2006  303   12.41000    -2.83000  
2006  304   12.43000    -3.57000  
2006  305   12.93000    -2.31000  
2006  306   13.16000    -1.28000  
2006  307   11.36000    -1.40000  
2006  308   11.29000    -0.72000  
2006  309   12.62000    -1.34000  
2006  310   12.92000    -1.30000  
2006  311   11.11000    -1.20000  
2006  312   12.94000    -1.62000  
2006  313   10.42000    -0.98000  
2006  314    6.16000    -1.89000  
2006  315    4.61000    -6.05000  
2006  316    0.60000    -9.01000  
2006  317    3.66000    -8.45000  
2006  318    0.87000    -7.41000  
2006  319    3.12000    -6.62000  
2006  320    0.48000   -10.23000  
2006  321    0.05000   -14.05000  
2006  322    2.42000   -13.33000  
2006  323    5.32000   -13.29000  
2006  324    4.44000   -12.52000  
2006  325    3.78000    -9.97000  
2006  326    3.81000    -8.26000  
2006  327    2.27000   -10.53000  
2006  328    5.50000    -9.97000  
2006  329    1.73000    -9.81000  
2006  330    4.66000   -11.80000  
2006  331    3.77000   -11.23000  
2006  332    6.32000    -5.44000  
2006  333    7.36000    -5.07000  
2006  334    3.22000    -4.66000  
2006  335    6.38000    -5.42000  
2006  336   -1.52000   -14.19000  
2006  337  -11.59000   -23.05000  
2006  338   -7.73000   -22.69000  
2006  339   -2.72000   -17.87000  
2006  340   -1.19000    -9.61000  
2006  341    1.14000    -7.25000  
2006  342    7.52000    -2.79000  
2006  343    5.50000   -10.81000  
2006  344    4.26000   -11.56000  
2006  345    3.42000    -7.28000  
2006  346   -1.12000   -12.17000  
2006  347   -0.73000   -14.02000  
2006  348    1.29000   -13.68000  
2006  349    2.06000   -11.54000  
2006  350   -0.04000   -14.71000  
2006  351    1.24000   -14.70000  
2006  352    1.90000   -10.34000  
2006  353   -2.86000   -11.90000  
2006  354   -4.73000   -19.38000  
2006  355  -14.77000   -21.21000  
2006  356   -9.09000   -20.49000  
2006  357   -3.61000   -17.46000  
2006  358   -5.79000   -17.43000  
2006  359   -8.00000   -16.43000  
2006  360   -6.28000   -14.42000  
2006  361  -13.98000   -21.73000  
2006  362  -11.17000   -22.35000  
2006  363  -10.28000   -23.44000  
2006  364  -10.90000   -23.16000  
2006  365  -12.22000   -23.47000  
2007    1  -10.48000   -25.36000  
2007    2   -6.95000   -24.03000  
2007    3   -7.31000   -22.44000  
2007    4   -6.82000   -18.65000  
2007    5   -3.63000   -17.12000  
2007    6   -2.80000   -13.33000  
2007    7   -2.44000   -13.48000  
2007    8   -2.92000   -15.27000  
2007    9   -6.06000   -15.28000  
2007   10   -6.35000   -16.38000  
2007   11   -6.68000   -17.96000  
2007   12   -6.40000   -20.17000  
2007   13   -5.40000   -19.48000  
2007   14   -6.42000   -19.95000  
2007   15   -8.77000   -20.02000  
2007   16   -5.74000   -19.53000  
2007   17   -7.82000   -19.21000  
2007   18  -10.51000   -19.36000  
2007   19  -11.35000   -21.25000  
2007   20  -16.65000   -27.64000  
2007   21  -14.86000   -30.08000  
2007   22  -17.28000   -29.89000  
2007   23  -20.82000   -29.64000  
2007   24  -21.15000   -29.87000  
2007   25  -19.21000   -28.78000  
2007   26  -15.79000   -28.58000  
2007   27  -12.82000   -27.59000  
2007   28  -13.53000   -27.15000  
2007   29  -11.74000   -24.95000  
2007   30  -13.98000   -27.39000  
2007   31  -11.76000   -28.84000  
2007   32  -10.21000   -28.52000  
2007   33   -6.95000   -22.61000  
2007   34  -10.40000   -23.30000  
2007   35   -7.25000   -25.90000  
2007   36   -9.85000   -24.82000  
2007   37  -12.52000   -27.71000  
2007   38   -8.60000   -26.37000  
2007   39   -7.39000   -25.89000  
2007   40   -6.15000   -19.26000  
2007   41   -9.62000   -21.98000  
2007   42   -8.51000   -21.77000  
2007   43   -7.93000   -19.30000  
2007   44   -3.53000   -19.70000  
2007   45   -6.35000   -19.98000  
2007   46   -6.38000   -17.71000  
2007   47   -2.53000   -16.46000  
2007   48   -1.10000   -14.63000  
2007   49    3.49000   -12.26000  
2007   50    9.15000    -8.72000  
2007   51    5.01000    -6.74000  
2007   52    2.58000    -9.85000  
2007   53   -1.75000    -9.69000  
2007   54   -1.30000    -7.38000  
2007   55   -0.60000   -15.91000  
2007   56   -0.66000   -15.63000  
2007   57    3.15000   -15.39000  
2007   58    4.78000    -7.03000  
2007   59    9.30000    -5.82000  
2007   60    7.37000    -9.19000  
2007   61   10.25000    -8.70000  
2007   62   11.28000    -7.90000  
2007   63   11.93000    -4.27000  
2007   64    9.85000    -3.34000  
2007   65    6.10000    -5.33000  
2007   66   10.64000    -4.49000  
2007   67   14.52000    -3.00000  
2007   68   15.37000    -0.36000  
2007   69   14.35000     2.45000  
2007   70    5.79000    -7.93000  
2007   71    4.47000    -7.56000  
2007   72   13.54000    -3.73000  
2007   73    8.02000    -6.49000  
2007   74   15.07000    -5.28000  
2007   75   18.73000     1.21000  
2007   76   16.20000    -0.23000  
2007   77    9.20000    -2.60000  
2007   78   10.36000    -1.71000  
2007   79    7.09000    -3.67000  
2007   80   10.81000    -4.44000  
2007   81   12.47000    -5.84000  
2007   82   15.80000    -4.16000  
2007   83   17.29000    -0.21000  
2007   84   18.38000     1.08000  
2007   85   10.36000    -6.32000  
2007   86    3.86000    -6.35000  
2007   87    7.43000    -4.44000  
2007   88    2.40000    -3.84000  
2007   89    1.75000    -5.75000  
2007   90    4.71000    -5.10000  
2007   91    9.14000    -7.31000  
2007   92   14.31000    -5.70000  
2007   93   15.23000    -4.70000  
2007   94   15.47000    -3.74000  
2007   95   16.23000    -2.44000  
2007   96   18.84000    -0.74000  
2007   97   16.52000     3.58000  
2007   98   17.31000     4.15000  