hru.con: written by SWAT+ editor v3.0.8 on 2025-11-17 21:10 for SWAT+ rev.61.0.1
      id  name                gis_id          area           lat           lon          elev       hru               wst       cst      ovfl      rule   out_tot  
       1  hru00001                 1    1556.25000      43.19470      96.73378    2047.01606         1     s42531n97031e         0         0         0         0  
       2  hru00002                 2    1593.75000      43.11496      96.81919    1851.92941         2     s42531n97031e         0         0         0         0  
       3  hru00003                 3    5643.75000      43.05503      96.92519    1641.75415         3     s42531n97031e         0         0         0         0  
       4  hru00004                 4  171862.50000      43.00777      97.07989    1414.04706         4     s42531n97031e         0         0         0         0  
       5  hru00005                 5   74275.00000      43.03004      96.98665    1490.53635         5     s42531n97031e         0         0         0         0  
       6  hru00006                 6     743.75000      42.74871      97.41231    1162.19328         6     s42531n97031e         0         0         0         0  
       7  hru00007                 7      12.50000      42.75078      97.42416    1163.50000         7     s42531n97031e         0         0         0         0  
       8  hru00008                 8   20462.50000      42.80016      97.55354    1401.20770         8     s42781n98031e         0         0         0         0  
       9  hru00009                 9   65862.50000      42.83925      97.51759    1414.07781         9     s42781n98031e         0         0         0         0  
      10  hru00010                10    1581.25000      42.75707      97.59383    1355.37154        10     s42781n98031e         0         0         0         0  
      11  hru00011                11     200.00000      42.73656      97.71983    1260.50000        11     s42781n98031e         0         0         0         0  
      12  hru00012                12      62.50000      42.75956      97.85585    1179.40000        12     s42781n98031e         0         0         0         0  
      13  hru00013                13   46956.25000      42.64736      97.60906    1138.17197        13     s42781n98031e         0         0         0         0  
      14  hru00014                14   15468.75000      42.64077      97.70309    1125.07394        14     s42781n98031e         0         0         0         0  
      15  hru00015                15    1050.00000      42.65514      97.79222    1096.50000        15     s42781n98031e         0         0         0         0  
      16  hru00016                16      18.75000      42.67640      97.81050    1143.66667        16     s42781n98031e         0         0         0         0  
      17  hru00017                17      81.25000      42.65648      97.81735    1099.23077        17     s42781n98031e         0         0         0         0  
      18  hru00018                18     156.25000      42.68639      97.97531    1073.72000        18     s42781n98031e         0         0         0         0  
      19  hru00019                19     118.75000      42.68324      97.98723    1063.21053        19     s42781n98031e         0         0         0         0  
      20  hru00020                20       6.25000      42.69016      97.96193    1090.00000        20     s42781n98031e         0         0         0         0  
      21  hru00021                21     675.00000      42.66566      97.99267    1054.97222        21     s42781n98031e         0         0         0         0  
      22  hru00022                22     650.00000      42.66405      97.99210    1065.28846        22     s42781n98031e         0         0         0         0  
      23  hru00023                23     112.50000      42.66581      97.99168    1074.50000        23     s42781n98031e         0         0         0         0  
      24  hru00024                24      12.50000      42.66261      97.96774    1078.50000        24     s42781n98031e         0         0         0         0  
      25  hru00025                25    8837.50000      42.50072      97.66236    1285.32107        25     s42781n98031e         0         0         0         0  
      26  hru00026                26    7862.50000      42.55436      97.71653    1226.18283        26     s42781n98031e         0         0         0         0  
      27  hru00027                27     656.25000      42.55801      97.70680    1262.67619        27     s42781n98031e         0         0         0         0  
      28  hru00028                28      81.25000      42.51385      97.61536    1407.07692        28     s42781n98031e         0         0         0         0  
      29  hru00029                29       6.25000      42.50805      97.59053    1435.00000        29     s42781n98031e         0         0         0         0  
      30  hru00030                30      31.25000      42.25136      97.37686    1601.20000        30     s42531n97031e         0         0         0         0  
      31  hru00031                31   53606.25000      42.92691      98.10381    1455.46765        31     s42781n98031e         0         0         0         0  
      32  hru00032                32   85093.75000      42.94580      98.06247    1423.28851        32     s42781n98031e         0         0         0         0  
      33  hru00033                33    6993.75000      42.88961      98.11269    1453.49687        33     s42781n98031e         0         0         0         0  
      34  hru00034                34    1662.50000      42.85825      98.13392    1458.29323        34     s42781n98031e         0         0         0         0  
      35  hru00035                35     781.25000      42.86601      98.15482    1512.43200        35     s42781n98031e         0         0         0         0  
      36  hru00036                36      50.00000      42.67783      98.03166    1070.87500        36     s42781n98031e         0         0         0         0  
      37  hru00037                37      12.50000      42.67912      98.02960    1081.50000        37     s42781n98031e         0         0         0         0  
      38  hru00038                38    1000.00000      42.65535      98.09336    1063.75625        38     s42781n98031e         0         0         0         0  
      39  hru00039                39     593.75000      42.65418      98.08579    1068.96842        39     s42781n98031e         0         0         0         0  
      40  hru00040                40      18.75000      42.66049      98.06496    1082.66667        40     s42781n98031e         0         0         0         0  
      41  hru00041                41      62.50000      42.63196      98.11498    1065.50000        41     s42781n98031e         0         0         0         0  
      42  hru00042                42      31.25000      42.63415      98.11415    1065.00000        42     s42781n98031e         0         0         0         0  
      43  hru00043                43   41256.25000      42.83550      97.80829    1269.80760        43     s42781n98031e         0         0         0         0  
      44  hru00044                44   53450.00000      42.82879      97.75257    1245.87699        44     s42781n98031e         0         0         0         0  
      45  hru00045                45    6143.75000      42.81954      97.87828    1247.25534        45     s42781n98031e         0         0         0         0  
      46  hru00046                46    1206.25000      42.80157      97.91277    1208.86010        46     s42781n98031e         0         0         0         0  
      47  hru00047                47     493.75000      42.78144      97.89916    1182.26582        47     s42781n98031e         0         0         0         0  
      48  hru00048                48    1431.25000      42.72224      97.65665    1117.15284        48     s42781n98031e         0         0         0         0  
      49  hru00049                49     837.50000      42.71516      97.69289    1119.30597        49     s42781n98031e         0         0         0         0  
      50  hru00050                50      43.75000      42.71137      97.72079    1118.42857        50     s42781n98031e         0         0         0         0  
      51  hru00051                51      18.75000      42.67704      98.02516    1074.00000        51     s42781n98031e         0         0         0         0  
      52  hru00052                52      12.50000      42.67778      98.02509    1064.00000        52     s42781n98031e         0         0         0         0  
      53  hru00053                53      18.75000      42.66816      98.04048    1066.66667        53     s42781n98031e         0         0         0         0  
      54  hru00054                54       6.25000      42.66747      98.04158    1069.00000        54     s42781n98031e         0         0         0         0  
      55  hru00055                55       6.25000      42.66541      98.04487    1066.00000        55     s42781n98031e         0         0         0         0  
      56  hru00056                56   61568.75000      42.71467      98.43756    1471.07837        56     s42781n98031e         0         0         0         0  
      57  hru00057                57   46412.50000      42.66315      98.36853    1404.47495        57     s42781n98031e         0         0         0         0  
      58  hru00058                58   14550.00000      42.78128      98.51383    1596.61856        58     s42781n98031e         0         0         0         0  
      59  hru00059                59    4887.50000      42.81119      98.51768    1675.33632        59     s42781n98031e         0         0         0         0  
      60  hru00060                60    3006.25000      42.82233      98.53745    1781.10187        60     s42781n98031e         0         0         0         0  
      61  hru00061                61   36856.25000      42.51967      98.32903    1143.77344        61     s42781n98031e         0         0         0         0  
      62  hru00062                62   44087.50000      42.50843      98.30567    1132.81954        62     s42781n98031e         0         0         0         0  
      63  hru00063                63     906.25000      42.55286      98.38783    1136.84828        63     s42781n98031e         0         0         0         0  
      64  hru00064                64    5750.00000      42.54827      98.39772    1136.58696        64     s42781n98031e         0         0         0         0  
      65  hru00065                65    1531.25000      42.54961      98.39182    1142.43673        65     s42781n98031e         0         0         0         0  
      66  hru00066                66   26068.75000      42.46359      98.11091    1258.21530        66     s42781n98031e         0         0         0         0  
      67  hru00067                67    1575.00000      42.50837      98.19961    1217.48810        67     s42781n98031e         0         0         0         0  
      68  hru00068                68   32368.75000      42.42724      98.05684    1280.51825        68     s42781n98031e         0         0         0         0  
      69  hru00069                69      93.75000      42.59816      98.35165    1188.60000        69     s42781n98031e         0         0         0         0  
      70  hru00070                70     187.50000      42.55320      98.32596    1199.86667        70     s42781n98031e         0         0         0         0  
      71  hru00071                71    2387.50000      42.29861      97.74404    1440.24869        71     s42781n98031e         0         0         0         0  
      72  hru00072                72    3687.50000      42.28993      97.73538    1440.71186        72     s42781n98031e         0         0         0         0  
      73  hru00073                73      75.00000      42.33879      97.77144    1421.25000        73     s42781n98031e         0         0         0         0  
      74  hru00074                74       6.25000      42.34210      97.82043    1412.00000        74     s42781n98031e         0         0         0         0  
      75  hru00075                75    3562.50000      42.49338      98.46488    1079.29123        75     s42781n98031e         0         0         0         0  
      76  hru00076                76    2587.50000      42.49351      98.43811    1097.13285        76     s42781n98031e         0         0         0         0  
      77  hru00077                77     112.50000      42.49145      98.40117    1113.44444        77     s42781n98031e         0         0         0         0  
      78  hru00078                78      12.50000      42.48348      98.35131    1150.00000        78     s42781n98031e         0         0         0         0  
      79  hru00079                79   48487.50000      42.54657      96.97426    1432.71217        79     s42531n97031e         0         0         0         0  
      80  hru00080                80   97575.00000      42.50297      97.04149    1414.84301        80     s42531n97031e         0         0         0         0  
      81  hru00081                81    3612.50000      42.66421      96.86403    1456.84083        81     s42531n97031e         0         0         0         0  
      82  hru00082                82    1037.50000      42.64518      96.87335    1489.69277        82     s42531n97031e         0         0         0         0  
      83  hru00083                83     531.25000      42.69403      96.85618    1421.23529        83     s42531n97031e         0         0         0         0  
      84  hru00084                84   68412.50000      42.67253      97.13653    1237.71606        84     s42531n97031e         0         0         0         0  
      85  hru00085                85   16543.75000      42.66357      97.02587    1257.60975        85     s42531n97031e         0         0         0         0  
      86  hru00086                86      12.50000      42.71894      96.80896    1250.50000        86     s42531n97031e         0         0         0         0  
      87  hru00087                87     268.75000      42.65993      96.96859    1238.74419        87     s42531n97031e         0         0         0         0  
      88  hru00088                88    2862.50000      42.51820      96.97671    1370.40393        88     s42531n97031e         0         0         0         0  
      89  hru00089                89     762.50000      42.51160      96.99415    1381.31148        89     s42531n97031e         0         0         0         0  
      90  hru00090                90    5062.50000      42.26122      97.07365    1748.23086        90     s42531n97031e         0         0         0         0  
      91  hru00091                91    6068.75000      42.26808      97.08284    1723.52317        91     s42531n97031e         0         0         0         0  
      92  hru00092                92     600.00000      42.25515      97.08038    1792.62500        92     s42531n97031e         0         0         0         0  
      93  hru00093                93     218.75000      42.25420      97.07133    1829.34286        93     s42531n97031e         0         0         0         0  
      94  hru00094                94     162.50000      42.25682      97.07154    1865.76923        94     s42531n97031e         0         0         0         0  
      95  hru00095                95     200.00000      42.44512      96.90097    1514.87500        95     s42531n97031e         0         0         0         0  
      96  hru00096                96     350.00000      42.35387      96.93268    1606.37500        96     s42531n97031e         0         0         0         0  
      97  hru00097                97     212.50000      42.58940      96.94393    1371.08824        97     s42531n97031e         0         0         0         0  
      98  hru00098                98      81.25000      42.54727      96.91458    1395.53846        98     s42531n97031e         0         0         0         0  
      99  hru00099                99     150.00000      42.51454      97.09847    1360.66667        99     s42531n97031e         0         0         0         0  
     100  hru00100               100     118.75000      42.30493      97.08513    1725.36842       100     s42531n97031e         0         0         0         0  
     101  hru00101               101       6.25000      42.22602      97.08703    1948.00000       101     s42531n97031e         0         0         0         0  
     102  hru00102               102      31.25000      42.44600      96.89400    1459.20000       102     s42531n97031e         0         0         0         0  
     103  hru00103               103       6.25000      42.46205      96.89403    1442.00000       103     s42531n97031e         0         0         0         0  
     104  hru00104               104     100.00000      42.87676      98.35276    1820.93750       104     s42781n98031e         0         0         0         0  
     105  hru00105               105    2831.25000      42.78807      98.27875    1407.19647       105     s42781n98031e         0         0         0         0  
     106  hru00106               106     206.25000      42.86472      98.33829    1741.21212       106     s42781n98031e         0         0         0         0  
     107  hru00107               107     568.75000      42.83687      98.31997    1605.19780       107     s42781n98031e         0         0         0         0  
     108  hru00108               108    3050.00000      42.74294      98.23729    1246.09631       108     s42781n98031e         0         0         0         0  
     109  hru00109               109     212.50000      42.65066      98.13080    1073.38235       109     s42781n98031e         0         0         0         0  
     110  hru00110               110     112.50000      42.64678      98.12734    1079.33333       110     s42781n98031e         0         0         0         0  
     111  hru00111               111       6.25000      42.64253      98.12139    1076.00000       111     s42781n98031e         0         0         0         0  
     112  hru00112               112     368.75000      42.64161      98.13784    1067.49153       112     s42781n98031e         0         0         0         0  
     113  hru00113               113     331.25000      42.64089      98.13825    1080.15094       113     s42781n98031e         0         0         0         0  
     114  hru00114               114       6.25000      42.64046      98.12468    1079.00000       114     s42781n98031e         0         0         0         0  
     115  hru00115               115   18918.75000      42.55035      96.51468    1543.84506       115     s42531n97031e         0         0         0         0  
     116  hru00116               116     925.00000      42.58143      96.52763    1534.84459       116     s42531n97031e         0         0         0         0  
     117  hru00117               117   22418.75000      42.53590      96.49856    1551.21132       117     s42531n97031e         0         0         0         0  
     118  hru00118               118      50.00000      42.68576      96.58219    1441.87500       118     s42531n97031e         0         0         0         0  
     119  hru00119               119      12.50000      42.71597      96.64802    1384.50000       119     s42531n97031e         0         0         0         0  
     120  hru00120               120   22918.75000      42.63089      96.54696    1437.34579       120     s42531n97031e         0         0         0         0  
     121  hru00121               121   21300.00000      42.64473      96.56205    1428.24237       121     s42531n97031e         0         0         0         0  
     122  hru00122               122    1243.75000      42.67861      96.59797    1377.85930       122     s42531n97031e         0         0         0         0  
     123  hru00123               123     168.75000      42.69552      96.62756    1339.51852       123     s42531n97031e         0         0         0         0  
     124  hru00124               124      43.75000      42.69416      96.64305    1353.00000       124     s42531n97031e         0         0         0         0  
     125  hru00125               125    7643.75000      42.56246      96.44037    1567.68275       125     s42531n97031e         0         0         0         0  
     126  hru00126               126   10175.00000      42.56936      96.43849    1552.03071       126     s42531n97031e         0         0         0         0  
     127  hru00127               127       6.25000      42.64408      96.54799    1452.00000       127     s42531n97031e         0         0         0         0  
     128  hru00128               128     262.50000      42.51227      96.40097    1635.85714       128     s42531n97031e         0         0         0         0  
     129  hru00129               129      68.75000      42.36909      96.42135    1685.27273       129     s42531n97031e         0         0         0         0  
     130  hru00130               130      81.25000      42.36709      96.42328    1694.30769       130     s42531n97031e         0         0         0         0  
     131  hru00131               131      37.50000      42.70381      96.68666    1227.83333       131     s42531n97031e         0         0         0         0  
     132  hru00132               132      18.75000      42.70424      96.69385    1230.66667       132     s42531n97031e         0         0         0         0  
     133  hru00133               133     281.25000      42.66910      96.51980    1424.66667       133     s42531n97031e         0         0         0         0  
     134  hru00134               134     418.75000      42.67038      96.52701    1405.74627       134     s42531n97031e         0         0         0         0  
     135  hru00135               135      31.25000      42.66420      96.62185    1328.80000       135     s42531n97031e         0         0         0         0  
     136  hru00136               136       6.25000      42.69514      96.69077    1243.00000       136     s42531n97031e         0         0         0         0  
     137  hru00137               137       6.25000      42.69515      96.76519    1167.00000       137     s42531n97031e         0         0         0         0  
     138  hru00138               138      25.00000      42.69805      96.75787    1172.25000       138     s42531n97031e         0         0         0         0  
     139  hru00139               139       6.25000      42.69699      96.75877    1176.00000       139     s42531n97031e         0         0         0         0  
     140  hru00140               140      50.00000      42.69268      96.75656    1174.37500       140     s42531n97031e         0         0         0         0  
     141  hru00141               141      12.50000      42.69118      96.75479    1189.00000       141     s42531n97031e         0         0         0         0  
     142  hru00142               142   20968.75000      42.32046      96.69993    1683.81073       142     s42531n97031e         0         0         0         0  
     143  hru00143               143   15050.00000      42.34609      96.68050    1679.82600       143     s42531n97031e         0         0         0         0  
     144  hru00144               144     825.00000      42.38626      96.68117    1661.76515       144     s42531n97031e         0         0         0         0  
     145  hru00145               145      43.75000      42.18630      96.70092    1919.14286       145     s42531n97031e         0         0         0         0  
     146  hru00146               146      50.00000      42.34530      96.69321    1725.50000       146     s42531n97031e         0         0         0         0  
     147  hru00147               147   25756.25000      42.42580      96.72458    1560.25212       147     s42531n97031e         0         0         0         0  
     148  hru00148               148   41475.00000      42.42084      96.74976    1547.47016       148     s42531n97031e         0         0         0         0  
     149  hru00149               149    1400.00000      42.42371      96.70321    1588.72768       149     s42531n97031e         0         0         0         0  
     150  hru00150               150     200.00000      42.36467      96.68874    1706.18750       150     s42531n97031e         0         0         0         0  
     151  hru00151               151     118.75000      42.29885      96.67752    1884.15789       151     s42531n97031e         0         0         0         0  
     152  hru00152               152    9506.25000      42.21296      96.73712    1850.31755       152     s42531n97031e         0         0         0         0  
     153  hru00153               153   16187.50000      42.20141      96.79575    1820.13282       153     s42531n97031e         0         0         0         0  
     154  hru00154               154     862.50000      42.22390      96.64596    1916.47826       154     s42531n97031e         0         0         0         0  
     155  hru00155               155     300.00000      42.23104      96.63348    1945.39583       155     s42531n97031e         0         0         0         0  
     156  hru00156               156     168.75000      42.22968      96.62539    2006.77778       156     s42531n97031e         0         0         0         0  
     157  hru00157               157    1212.50000      42.55184      96.85075    1334.18041       157     s42531n97031e         0         0         0         0  
     158  hru00158               158     368.75000      42.55367      96.84560    1340.54237       158     s42531n97031e         0         0         0         0  
     159  hru00159               159    3500.00000      42.43735      96.66466    1651.77857       159     s42531n97031e         0         0         0         0  
     160  hru00160               160    4868.75000      42.44262      96.66952    1659.01412       160     s42531n97031e         0         0         0         0  
     161  hru00161               161     168.75000      42.45265      96.67605    1651.44444       161     s42531n97031e         0         0         0         0  
     162  hru00162               162     256.25000      42.10497      96.62227    1952.02439       162     s41781n97031e         0         0         0         0  
     163  hru00163               163     412.50000      42.10523      96.62095    1942.40909       163     s41781n97031e         0         0         0         0  
     164  hru00164               164     718.75000      42.31498      96.76907    1629.44348       164     s42531n97031e         0         0         0         0  
     165  hru00165               165     375.00000      42.28783      96.73536    1691.68333       165     s42531n97031e         0         0         0         0  
     166  hru00166               166    6812.50000      42.32913      96.77056    1644.85780       166     s42531n97031e         0         0         0         0  
     167  hru00167               167    4031.25000      42.33291      96.76987    1646.12558       167     s42531n97031e         0         0         0         0  
     168  hru00168               168      68.75000      42.38156      96.75695    1603.90909       168     s42531n97031e         0         0         0         0  
     169  hru00169               169     225.00000      42.55275      96.81669    1328.27778       169     s42531n97031e         0         0         0         0  
     170  hru00170               170      43.75000      42.54886      96.82229    1338.42857       170     s42531n97031e         0         0         0         0  
     171  hru00171               171    1106.25000      42.15276      96.75347    1826.55367       171     s41781n97031e         0         0         0         0  
     172  hru00172               172     550.00000      42.14380      96.75123    1838.88636       172     s41781n97031e         0         0         0         0  
     173  hru00173               173     525.00000      42.58214      96.78800    1299.75000       173     s42531n97031e         0         0         0         0  
     174  hru00174               174     331.25000      42.63710      96.77938    1243.22642       174     s42531n97031e         0         0         0         0  
     175  hru00175               175      12.50000      42.68214      96.75274    1230.00000       175     s42531n97031e         0         0         0         0  
     176  hru00176               176      56.25000      42.37795      96.79965    1563.22222       176     s42531n97031e         0         0         0         0  
     177  hru00177               177     268.75000      42.37905      96.80194    1550.79070       177     s42531n97031e         0         0         0         0  
     178  hru00178               178      81.25000      42.31161      96.80551    1623.76923       178     s42531n97031e         0         0         0         0  
     179  hru00179               179     168.75000      42.36924      96.64700    1667.25926       179     s42531n97031e         0         0         0         0  
     180  hru00180               180      18.75000      42.29851      96.90433    1693.33333       180     s42531n97031e         0         0         0         0  
     181  hru00181               181       6.25000      42.29975      96.90008    1687.00000       181     s42531n97031e         0         0         0         0  