initial.aqu: written by SWAT+ editor v3.0.8 on 2025-11-17 21:11 for SWAT+ rev.61.0.1
name                       org_min              pest              path              hmet              salt  description       
initaqu1                   no_init              null              null              null              null  null              
