object.cnt: written by SWAT+ editor v3.0.8 on 2025-11-17 21:10 for SWAT+ rev.61.0.1
name                   ls_area      tot_area       obj       hru      lhru       rtu      gwfl       aqu       cha       res       rec      exco       dlr       can       pmp       out      lcha     aqu2d       hrd       wro  
ex1018            16694662.50000  16694662.50000     10577     10234         0       163         0        17         0         0         0         0         0         0         0         0       163         0         0         0  
