plant.ini: written by SWAT+ editor v3.0.8 on 2025-11-17 21:11 for SWAT+ rev.61.0.1
pcom_name          plt_cnt  rot_yr_ini          plt_name     lc_status      lai_init       bm_init      phu_init      plnt_pop      yrs_init      rsd_init  
bsvg_comm                1         1  
                                        bsvg             n       0.00000       0.00000       0.00000       0.00000       0.00000   10000.00000  
hay_comm                 1         1  
                                         hay             n       0.00000       0.00000       0.00000       0.00000       0.00000   10000.00000  
past_comm                1         1  
                                        past             y       0.00000   20000.00000       0.00000       0.00000       1.00000   10000.00000  
frst_comm                1         1  
                                        frst             y       2.00000   50000.00000       0.00000       0.00000       1.00000   10000.00000  
wetw_comm                1         1  
                                        wetw             y       2.00000   50000.00000       0.00000       0.00000       1.00000   10000.00000  
wetl_comm                1         1  
                                        wetl             y       2.00000   50000.00000       0.00000       0.00000       1.00000   10000.00000  
agrl_comm                1         1  
                                        agrl             n       0.00000       0.00000       0.00000       0.00000       0.00000   10000.00000  
