rout_unit.con: written by SWAT+ editor v3.0.8 on 2025-11-17 21:10 for SWAT+ rev.61.0.1
      id  name                gis_id          area           lat           lon          elev       rtu               wst       cst      ovfl      rule   out_tot       obj_typ    obj_id       hyd_typ          frac  
       1  rtu0010                 10  126187.50000      42.24982      99.37542    1069.00555         1     s42531n99281e         0         0         0         2           sdc         1           tot       1.00000           aqu         5           rhg       1.00000  
       2  rtu0020                 20  129125.00000      42.60584      98.95856    1197.59908         2     s42531n99281e         0         0         0         2           sdc         2           tot       1.00000           aqu         5           rhg       1.00000  
       3  rtu0030                 30   24962.50000      42.55711      98.73360    1104.06860         3     s42531n99281e         0         0         0         2           sdc         3           tot       1.00000           aqu         5           rhg       1.00000  
       4  rtu0040                 40     231.25000      42.45225      98.73733     997.75676         4     s42531n99281e         0         0         0         2           sdc         4           tot       1.00000           aqu         5           rhg       1.00000  
       5  rtu0050                 50  365262.50000      42.13580      97.93654    1454.09960         5     s41531n97781e         0         0         0         2           sdc         5           tot       1.00000           aqu         6           rhg       1.00000  
       6  rtu0060                 60  129550.00000      42.16479      98.73940    1306.40231         6     s42531n99281e         0         0         0         2           sdc         6           tot       1.00000           aqu         5           rhg       1.00000  
       7  rtu0070                 70  112387.50000      42.15828      98.44057    1361.33472         7     s42781n98031e         0         0         0         2           sdc         7           tot       1.00000           aqu         5           rhg       1.00000  
       8  rtu0080                 80  292281.25000      42.58318      98.31070    1321.11581         8     s42781n98031e         0         0         0         2           sdc         8           tot       1.00000           aqu         1           rhg       1.00000  
       9  rtu0090                 90    7793.75000      42.75794      98.24891    1328.41299         9     s42781n98031e         0         0         0         2           sdc         9           tot       1.00000           aqu         1           rhg       1.00000  
      10  rtu0100                100    7562.50000      42.60568      97.92425    1111.50248        10     s42781n98031e         0         0         0         2           sdc        10           tot       1.00000           aqu         1           rhg       1.00000  
      11  rtu0110                110  170950.00000      42.72808      97.58900    1288.25596        11     s42781n98031e         0         0         0         2           sdc        11           tot       1.00000           aqu         1           rhg       1.00000  
      12  rtu0120                120     212.50000      42.72411      97.43138    1149.58824        12     s42531n97031e         0         0         0         2           sdc        12           tot       1.00000           aqu         1           rhg       1.00000  
      13  rtu0130                130  112987.50000      42.71795     100.62698    1172.99237        13    s42781n100531e         0         0         0         2           sdc        13           tot       1.00000           aqu         2           rhg       1.00000  
      14  rtu0140                140  253375.00000      42.55956      97.05008    1376.32156        14     s42531n97031e         0         0         0         2           sdc        14           tot       1.00000           aqu         1           rhg       1.00000  
      15  rtu0150                150    1168.75000      42.52199     100.48502     918.71123        15    s42781n100531e         0         0         0         2           sdc        15           tot       1.00000           aqu         2           rhg       1.00000  
      16  rtu0160                160  152268.75000      42.44827     100.26145     962.55896        16    s42781n100531e         0         0         0         2           sdc        16           tot       1.00000           aqu         2           rhg       1.00000  
      17  rtu0170                170  234893.75000      42.82564     100.88567    1294.74308        17    s42781n100531e         0         0         0         2           sdc        17           tot       1.00000           aqu         2           rhg       1.00000  
      18  rtu0180                180  115775.00000      42.68315      99.25109    1174.84177        18     s42531n99281e         0         0         0         2           sdc        18           tot       1.00000           aqu         5           rhg       1.00000  
      19  rtu0190                190  159100.00000      42.35683      96.73254    1644.76607        19     s42531n97031e         0         0         0         2           sdc        19           tot       1.00000           aqu         1           rhg       1.00000  
      20  rtu0200                200  108350.00000      42.39087      97.68715    1375.85360        20     s42781n98031e         0         0         0         2           sdc        20           tot       1.00000           aqu         1           rhg       1.00000  
      21  rtu0210                210  135725.00000      42.89587     100.46875    1385.09104        21    s42781n100531e         0         0         0         2           sdc        21           tot       1.00000           aqu         2           rhg       1.00000  
      22  rtu0220                220   72537.50000      42.42049      97.33762    1438.19412        22     s42531n97031e         0         0         0         2           sdc        22           tot       1.00000           aqu         1           rhg       1.00000  
      23  rtu0230                230  104925.00000      42.82785      97.78274    1251.71730        23     s42781n98031e         0         0         0         2           sdc        23           tot       1.00000           aqu         1           rhg       1.00000  
      24  rtu0240                240  137200.00000      42.87628     100.21147    1330.42055        24    s42781n100531e         0         0         0         2           sdc        24           tot       1.00000           aqu         2           rhg       1.00000  
      25  rtu0250                250  107131.25000      42.58882      96.51644    1498.60883        25     s42531n97031e         0         0         0         2           sdc        25           tot       1.00000           aqu         1           rhg       1.00000  
      26  rtu0260                260  291400.00000      42.73068      99.75662    1155.83240        26     s42531n99281e         0         0         0         2           sdc        26           tot       1.00000           aqu         5           rhg       1.00000  
      27  rtu0270                270  149906.25000      42.93160      98.08119    1432.84357        27     s42781n98031e         0         0         0         2           sdc        27           tot       1.00000           aqu         1           rhg       1.00000  
      28  rtu0280                280  255687.50000      43.01633      97.04666    1447.12982        28     s42531n97031e         0         0         0         2           sdc        28           tot       1.00000           aqu         1           rhg       1.00000  
      29  rtu0290                290     631.25000      42.16967     101.14795     906.88119        29    s42031n100531e         0         0         0         2           sdc        29           tot       1.00000           aqu         4           rhg       1.00000  
      30  rtu0300                300   60718.75000      42.10042     100.78019     932.17530        30    s42031n100531e         0         0         0         2           sdc        30           tot       1.00000           aqu         4           rhg       1.00000  
      31  rtu0310                310   30906.25000      42.21124     100.73261     929.54965        31    s42031n100531e         0         0         0         2           sdc        31           tot       1.00000           aqu         7           rhg       1.00000  
      32  rtu0320                320    5643.75000      42.29026     100.65023     921.88040        32    s42031n100531e         0         0         0         2           sdc        32           tot       1.00000           aqu         7           rhg       1.00000  
      33  rtu0330                330   35550.00000      42.15118     100.28278     932.71941        33    s42031n100531e         0         0         0         2           sdc        33           tot       1.00000           aqu         8           rhg       1.00000  
      34  rtu0340                340   50793.75000      42.13463      99.82988     979.36889        34     s41781n99531e         0         0         0         2           sdc        34           tot       1.00000           aqu         8           rhg       1.00000  
      35  rtu0350                350   17012.50000      41.95104      99.95060     942.64291        35     s41781n99531e         0         0         0         2           sdc        35           tot       1.00000           aqu         8           rhg       1.00000  
      36  rtu0360                360   49906.25000      41.86921      99.76537     964.77207        36     s41781n99531e         0         0         0         2           sdc        36           tot       1.00000           aqu         8           rhg       1.00000  
      37  rtu0370                370   16525.00000      41.83570      99.77392     958.17663        37     s41781n99531e         0         0         0         2           sdc        37           tot       1.00000           aqu         8           rhg       1.00000  
      38  rtu0380                380    9187.50000      41.75153      99.69457     973.80136        38     s41781n99531e         0         0         0         2           sdc        38           tot       1.00000           aqu         8           rhg       1.00000  
      39  rtu0390                390  195887.50000      41.58830      99.27701    1157.13375        39     s41781n99531e         0         0         0         2           sdc        39           tot       1.00000           aqu         8           rhg       1.00000  
      40  rtu0400                400    3550.00000      41.56412      98.93954    1145.30634        40     s41281n98531e         0         0         0         2           sdc        40           tot       1.00000           aqu         8           rhg       1.00000  
      41  rtu0410                410  138856.25000      41.48587      98.74527    1266.83738        41     s41281n98531e         0         0         0         2           sdc        41           tot       1.00000           aqu         8           rhg       1.00000  
      42  rtu0420                420      37.50000      41.47208      98.65978    1172.00000        42     s41281n98531e         0         0         0         2           sdc        42           tot       1.00000           aqu         8           rhg       1.00000  
      43  rtu0430                430   46231.25000      41.40668      98.51384    1242.44153        43     s41281n98531e         0         0         0         2           sdc        43           tot       1.00000           aqu         8           rhg       1.00000  
      44  rtu0440                440  151806.25000      41.31023     100.56488    1024.24332        44    s41531n100781e         0         0         0         2           sdc        44           tot       1.00000           aqu         9           rhg       1.00000  
      45  rtu0450                450  104718.75000      42.29144      99.98473     954.96980        45    s42031n100531e         0         0         0         2           sdc        45           tot       1.00000           aqu         5           rhg       1.00000  
      46  rtu0460                460   21293.75000      42.44442      99.34277     938.33607        46     s42531n99281e         0         0         0         2           sdc        46           tot       1.00000           aqu         5           rhg       1.00000  
      47  rtu0470                470    1850.00000      42.28470     100.92480     912.50676        47    s42031n100531e         0         0         0         2           sdc        47           tot       1.00000           aqu         3           rhg       1.00000  
      48  rtu0480                480   81431.25000      42.78794     101.01204    1327.32313        48    s42781n100531e         0         0         0         2           sdc        48           tot       1.00000           aqu         3           rhg       1.00000  
      49  rtu0490                490  104275.00000      41.23426      99.07839    1394.32216        49     s41281n98531e         0         0         0         2           sdc        49           tot       1.00000           aqu         8           rhg       1.00000  
      50  rtu0500                500  114156.25000      41.13405      98.70510    1392.91152        50     s41281n98531e         0         0         0         2           sdc        50           tot       1.00000           aqu         8           rhg       1.00000  
      51  rtu0510                510  214131.25000      41.25030      99.67788    1214.73311        51     s40781n99781e         0         0         0         2           sdc        51           tot       1.00000           aqu         8           rhg       1.00000  
      52  rtu0520                520    4543.75000      42.35562     100.67358     900.12655        52    s42031n100531e         0         0         0         2           sdc        52           tot       1.00000           aqu         2           rhg       1.00000  
      53  rtu0530                530  136568.75000      42.78938     101.20107    1290.75219        53    s43031n101531e         0         0         0         2           sdc        53           tot       1.00000           aqu         3           rhg       1.00000  
      54  rtu0540                540  190218.75000      42.69674     101.33848    1238.65060        54    s43031n101531e         0         0         0         2           sdc        54           tot       1.00000           aqu         4           rhg       1.00000  
      55  rtu0550                550  124006.25000      41.84565      97.16510    1768.21662        55     s41781n97031e         0         0         0         2           sdc        55           tot       1.00000           aqu         6           rhg       1.00000  
      56  rtu0560                560   20562.50000      41.86201      97.04377    1745.88085        56     s41781n97031e         0         0         0         2           sdc        56           tot       1.00000           aqu         6           rhg       1.00000  
      57  rtu0570                570    1493.75000      41.94872      97.12862    1672.79916        57     s41781n97031e         0         0         0         2           sdc        57           tot       1.00000           aqu         6           rhg       1.00000  
      58  rtu0580                580  123518.75000      41.41711      99.62779    1154.06325        58     s41781n99531e         0         0         0         2           sdc        58           tot       1.00000           aqu         8           rhg       1.00000  
      59  rtu0590                590  112400.00000      41.77923      98.64786    1378.03976        59     s41281n98531e         0         0         0         2           sdc        59           tot       1.00000           aqu         8           rhg       1.00000  
      60  rtu0600                600  142506.25000      41.51017     100.06734    1020.83957        60     s41781n99531e         0         0         0         2           sdc        60           tot       1.00000           aqu         8           rhg       1.00000  
      61  rtu0610                610  171825.00000      41.66154      96.52849    2029.48334        61     s41781n97031e         0         0         0         2           sdc        61           tot       1.00000           aqu         6           rhg       1.00000  
      62  rtu0620                620  166850.00000      41.73704     100.19804     977.73067        62    s42031n100531e         0         0         0         2           sdc        62           tot       1.00000           aqu         8           rhg       1.00000  
      63  rtu0630                630  212787.50000      41.86401      99.18097    1178.69071        63     s41781n99531e         0         0         0         2           sdc        63           tot       1.00000           aqu         8           rhg       1.00000  
      64  rtu0640                640  424481.25000      41.65327      97.86625    1559.16500        64     s41531n97781e         0         0         0         2           sdc        64           tot       1.00000           aqu         8           rhg       1.00000  
      65  rtu0650                650   73725.00000      41.54945      96.73162    1997.57731        65     s41781n97031e         0         0         0         2           sdc        65           tot       1.00000           aqu         6           rhg       1.00000  
      66  rtu0660                660  103037.50000      42.04382      99.47228    1092.16996        66     s41781n99531e         0         0         0         2           sdc        66           tot       1.00000           aqu         8           rhg       1.00000  
      67  rtu0670                670  136093.75000      41.87212     100.41736     964.48762        67    s42031n100531e         0         0         0         2           sdc        67           tot       1.00000           aqu         7           rhg       1.00000  
      68  rtu0680                680   73250.00000      41.80088      97.33775    1693.99787        68     s41781n97031e         0         0         0         2           sdc        68           tot       1.00000           aqu         6           rhg       1.00000  
      69  rtu0690                690   84831.25000      41.90571      96.62655    1942.55986        69     s41781n97031e         0         0         0         2           sdc        69           tot       1.00000           aqu         6           rhg       1.00000  
      70  rtu0700                700  101756.25000      42.04197      96.72895    1891.40943        70     s41781n97031e         0         0         0         2           sdc        70           tot       1.00000           aqu         6           rhg       1.00000  
      71  rtu0710                710   68781.25000      42.29752      99.07006    1082.90886        71     s42531n99281e         0         0         0         2           sdc        71           tot       1.00000           aqu         5           rhg       1.00000  
      72  rtu0720                720  224800.00000      41.36011      97.77460    1563.35876        72     s41531n97781e         0         0         0         2           sdc        72           tot       1.00000           aqu         8           rhg       1.00000  
      73  rtu0730                730   21400.00000      40.81522     100.07298    1095.51168        73     s40781n99781e         0         0         0         2           sdc        73           tot       1.00000           aqu         9           rhg       1.00000  
      74  rtu0740                740   21693.75000      40.50656      99.87935    1133.52118        74     s40531n99781e         0         0         0         2           sdc        74           tot       1.00000           aqu         9           rhg       1.00000  
      75  rtu0750                750  155493.75000      40.07432      99.52711    1273.44805        75     s40531n99781e         0         0         0         2           sdc        75           tot       1.00000           aqu        12           rhg       1.00000  
      76  rtu0760                760  126637.50000      40.45045      99.48536    1270.94226        76     s40531n99781e         0         0         0         2           sdc        76           tot       1.00000           aqu        11           rhg       1.00000  
      77  rtu0770                770   14981.25000      41.26962      98.45016    1299.78473        77     s41281n98531e         0         0         0         2           sdc        77           tot       1.00000           aqu         8           rhg       1.00000  
      78  rtu0780                780  140043.75000      41.14625      98.02998    1406.95408        78     s40781n98281e         0         0         0         2           sdc        78           tot       1.00000           aqu         8           rhg       1.00000  
      79  rtu0790                790    5981.25000      40.98003      97.81926    1431.70742        79     s40781n98281e         0         0         0         2           sdc        79           tot       1.00000           aqu         8           rhg       1.00000  
      80  rtu0800                800   95368.75000      41.12237      97.48745    1623.19831        80     s41031n97281e         0         0         0         2           sdc        80           tot       1.00000           aqu         8           rhg       1.00000  
      81  rtu0810                810   77287.50000      40.14789      97.01933    1744.18446        81     s40031n97531e         0         0         0         2           sdc        81           tot       1.00000           aqu        10           rhg       1.00000  
      82  rtu0820                820  110612.50000      41.39322      96.99842    1979.61826        82     s41781n97031e         0         0         0         2           sdc        82           tot       1.00000           aqu         8           rhg       1.00000  
      83  rtu0830                830   27406.25000      41.01384      99.98971    1209.48917        83     s40781n99781e         0         0         0         2           sdc        83           tot       1.00000           aqu         9           rhg       1.00000  
      84  rtu0840                840   96650.00000      40.49349      97.09657    1501.93895        84     s40531n97531e         0         0         0         2           sdc        84           tot       1.00000           aqu        10           rhg       1.00000  
      85  rtu0850                850  156625.00000      40.67532      99.38338    1433.99533        85     s40781n99781e         0         0         0         2           sdc        85           tot       1.00000           aqu         9           rhg       1.00000  
      86  rtu0860                860   80356.25000      40.79631      99.78771    1210.17368        86     s40781n99781e         0         0         0         2           sdc        86           tot       1.00000           aqu         9           rhg       1.00000  
      87  rtu0870                870  181256.25000      40.95570      99.51838    1340.99428        87     s40781n99781e         0         0         0         2           sdc        87           tot       1.00000           aqu         9           rhg       1.00000  
      88  rtu0880                880   74681.25000      40.85821      98.94577    1542.28504        88     s40281n99031e         0         0         0         2           sdc        88           tot       1.00000           aqu         8           rhg       1.00000  
      89  rtu0890                890   77168.75000      40.76291      98.72821    1579.41273        89     s40781n98281e         0         0         0         2           sdc        89           tot       1.00000           aqu         8           rhg       1.00000  
      90  rtu0900                900  102450.00000      40.85484      97.95240    1508.34889        90     s40781n98281e         0         0         0         2           sdc        90           tot       1.00000           aqu         8           rhg       1.00000  
      91  rtu0910                910  114831.25000      40.92800      97.36457    1681.19208        91     s41031n97281e         0         0         0         2           sdc        91           tot       1.00000           aqu         8           rhg       1.00000  
      92  rtu0920                920  178825.00000      40.92945      98.39846    1470.28062        92     s40781n98281e         0         0         0         2           sdc        92           tot       1.00000           aqu         8           rhg       1.00000  
      93  rtu0930                930   77318.75000      41.18837      97.06268    1879.92127        93     s41031n97281e         0         0         0         2           sdc        93           tot       1.00000           aqu         8           rhg       1.00000  
      94  rtu0940                940    1543.75000      39.71068      99.51409    1297.65992        94     s39281n99781e         0         0         0         2           sdc        94           tot       1.00000           aqu        12           rhg       1.00000  
      95  rtu0950                950  105018.75000      39.59997      99.78778    1457.59144        95     s39281n99781e         0         0         0         2           sdc        95           tot       1.00000           aqu        12           rhg       1.00000  
      96  rtu0960                960  128781.25000      40.37174      99.11704    1348.77442        96     s40281n99031e         0         0         0         2           sdc        96           tot       1.00000           aqu        11           rhg       1.00000  
      97  rtu0970                970   77150.00000      40.34614      98.87319    1367.99757        97     s40281n99031e         0         0         0         2           sdc        97           tot       1.00000           aqu        10           rhg       1.00000  
      98  rtu0980                980    4743.75000      40.28601      98.76387    1239.83136        98     s40281n98531e         0         0         0         2           sdc        98           tot       1.00000           aqu        10           rhg       1.00000  
      99  rtu0990                990   30468.75000      40.16279      98.63605    1269.92595        99     s40281n98531e         0         0         0         2           sdc        99           tot       1.00000           aqu        10           rhg       1.00000  
     100  rtu1000               1000   44168.75000      39.95459      98.77943    1331.77982       100     s40281n98531e         0         0         0         2           sdc       100           tot       1.00000           aqu        13           rhg       1.00000  
     101  rtu1010               1010     456.25000      39.86323      98.85597    1314.05479       101     s40281n99031e         0         0         0         2           sdc       101           tot       1.00000           aqu        13           rhg       1.00000  
     102  rtu1020               1020   70881.25000      40.27224      98.42404    1290.25421       102     s40281n98531e         0         0         0         2           sdc       102           tot       1.00000           aqu        10           rhg       1.00000  
     103  rtu1030               1030   50875.00000      40.10366      98.18715    1460.26302       103     s40281n98531e         0         0         0         2           sdc       103           tot       1.00000           aqu        10           rhg       1.00000  
     104  rtu1040               1040    4956.25000      40.35815      98.16302    1210.92938       104     s40281n98531e         0         0         0         2           sdc       104           tot       1.00000           aqu        10           rhg       1.00000  
     105  rtu1050               1050   36600.00000      39.79748      98.55365    1457.94228       105     s40281n98531e         0         0         0         2           sdc       105           tot       1.00000           aqu        13           rhg       1.00000  
     106  rtu1060               1060   25106.25000      40.36278      97.99541    1204.94473       106     s40531n97531e         0         0         0         2           sdc       106           tot       1.00000           aqu        10           rhg       1.00000  
     107  rtu1070               1070    1187.50000      40.31417      97.92786    1206.76842       107     s40531n97531e         0         0         0         2           sdc       107           tot       1.00000           aqu        10           rhg       1.00000  
     108  rtu1080               1080     662.50000      40.41115      97.91558    1205.79245       108     s40531n97531e         0         0         0         2           sdc       108           tot       1.00000           aqu        10           rhg       1.00000  
     109  rtu1090               1090   47831.25000      40.37354      97.74422    1236.17144       109     s40531n97531e         0         0         0         2           sdc       109           tot       1.00000           aqu        10           rhg       1.00000  
     110  rtu1100               1100    5625.00000      40.43751      97.59309    1250.39889       110     s40531n97531e         0         0         0         2           sdc       110           tot       1.00000           aqu        10           rhg       1.00000  