sweep.ops: written by SWAT+ editor v3.0.8 on 2025-11-17 21:11 for SWAT+ rev.61.0.1
name                   swp_eff     frac_curb  description
high_eff               0.80000       0.90000  
