topography.hyd: written by SWAT+ editor v3.0.8 on 2025-11-17 21:11 for SWAT+ rev.61.0.1
name                       slp       slp_len       lat_len      dist_cha         depos  
topohru00001           0.37020      10.00000      10.00000     121.00000       0.00000  
topohru00002           0.23332      10.00000      10.00000     121.00000       0.00000  
topohru00003           0.14952      10.00000      10.00000     121.00000       0.00000  
topohru00004           0.02009      90.00000      90.00000     121.00000       0.00000  
topohru00005           0.06345      30.00000      30.00000     121.00000       0.00000  
topohru00006           0.01428      90.00000      90.00000     121.00000       0.00000  
topohru00007           0.04400      60.00000      60.00000     121.00000       0.00000  
topohru00008           0.06255      30.00000      30.00000     121.00000       0.00000  
topohru00009           0.01949      90.00000      90.00000     121.00000       0.00000  
topohru00010           0.14385      10.00000      10.00000     121.00000       0.00000  
topohru00011           0.23193      10.00000      10.00000     121.00000       0.00000  
topohru00012           0.33358      10.00000      10.00000     121.00000       0.00000  
topohru00013           0.01860      90.00000      90.00000     121.00000       0.00000  
topohru00014           0.06346      30.00000      30.00000     121.00000       0.00000  
topohru00015           0.14412      10.00000      10.00000     121.00000       0.00000  
topohru00016           0.37162      10.00000      10.00000     121.00000       0.00000  
topohru00017           0.22097      10.00000      10.00000     121.00000       0.00000  
topohru00018           0.06233      30.00000      30.00000     121.00000       0.00000  
topohru00019           0.02035      90.00000      90.00000     121.00000       0.00000  
topohru00020           0.12800      10.00000      10.00000     121.00000       0.00000  
topohru00021           0.01807      90.00000      90.00000     121.00000       0.00000  
topohru00022           0.07184      30.00000      30.00000     121.00000       0.00000  
topohru00023           0.14712      10.00000      10.00000     121.00000       0.00000  
topohru00024           0.21602      10.00000      10.00000     121.00000       0.00000  
topohru00025           0.02176      90.00000      90.00000     121.00000       0.00000  
topohru00026           0.06605      30.00000      30.00000     121.00000       0.00000  
topohru00027           0.14489      10.00000      10.00000     121.00000       0.00000  
topohru00028           0.21546      10.00000      10.00000     121.00000       0.00000  
topohru00029           0.28800      10.00000      10.00000     121.00000       0.00000  
topohru00030           0.01479      90.00000      90.00000     121.00000       0.00000  
topohru00031           0.06489      30.00000      30.00000     121.00000       0.00000  
topohru00032           0.02157      90.00000      90.00000     121.00000       0.00000  
topohru00033           0.14989      10.00000      10.00000     121.00000       0.00000  
topohru00034           0.23146      10.00000      10.00000     121.00000       0.00000  
topohru00035           0.35396      10.00000      10.00000     121.00000       0.00000  
topohru00036           0.02060      90.00000      90.00000     121.00000       0.00000  
topohru00037           0.06600      30.00000      30.00000     121.00000       0.00000  
topohru00038           0.01919      90.00000      90.00000     121.00000       0.00000  
topohru00039           0.06377      30.00000      30.00000     121.00000       0.00000  
topohru00040           0.15530      10.00000      10.00000     121.00000       0.00000  
topohru00041           0.06346      30.00000      30.00000     121.00000       0.00000  
topohru00042           0.02080      90.00000      90.00000     121.00000       0.00000  
topohru00043           0.06895      30.00000      30.00000     121.00000       0.00000  
topohru00044           0.02047      90.00000      90.00000     121.00000       0.00000  
topohru00045           0.14971      10.00000      10.00000     121.00000       0.00000  
topohru00046           0.22960      10.00000      10.00000     121.00000       0.00000  
topohru00047           0.34682      10.00000      10.00000     121.00000       0.00000  
topohru00048           0.01796      90.00000      90.00000     121.00000       0.00000  
topohru00049           0.06558      30.00000      30.00000     121.00000       0.00000  
topohru00050           0.14458      10.00000      10.00000     121.00000       0.00000  
topohru00051           0.05483      30.00000      30.00000     121.00000       0.00000  
topohru00052           0.00600     121.00000     121.00000     121.00000       0.00000  
topohru00053           0.07333      30.00000      30.00000     121.00000       0.00000  
topohru00054           0.00849     121.00000     121.00000     121.00000       0.00000  
topohru00055           0.14000      10.00000      10.00000     121.00000       0.00000  
topohru00056           0.07281      30.00000      30.00000     121.00000       0.00000  
topohru00057           0.01999      90.00000      90.00000     121.00000       0.00000  
topohru00058           0.15102      10.00000      10.00000     121.00000       0.00000  
topohru00059           0.23182      10.00000      10.00000     121.00000       0.00000  
topohru00060           0.36082      10.00000      10.00000     121.00000       0.00000  
topohru00061           0.06854      30.00000      30.00000     121.00000       0.00000  
topohru00062           0.01938      90.00000      90.00000     121.00000       0.00000  
topohru00063           0.36361      10.00000      10.00000     121.00000       0.00000  
topohru00064           0.15086      10.00000      10.00000     121.00000       0.00000  
topohru00065           0.23288      10.00000      10.00000     121.00000       0.00000  
topohru00066           0.06571      30.00000      30.00000     121.00000       0.00000  
topohru00067           0.14540      10.00000      10.00000     121.00000       0.00000  
topohru00068           0.02096      90.00000      90.00000     121.00000       0.00000  
topohru00069           0.34673      10.00000      10.00000     121.00000       0.00000  
topohru00070           0.22336      10.00000      10.00000     121.00000       0.00000  
topohru00071           0.06511      30.00000      30.00000     121.00000       0.00000  
topohru00072           0.02066      90.00000      90.00000     121.00000       0.00000  
topohru00073           0.14095      10.00000      10.00000     121.00000       0.00000  
topohru00074           0.22400      10.00000      10.00000     121.00000       0.00000  
topohru00075           0.01887      90.00000      90.00000     121.00000       0.00000  
topohru00076           0.06677      30.00000      30.00000     121.00000       0.00000  
topohru00077           0.14055      10.00000      10.00000     121.00000       0.00000  
topohru00078           0.21000      10.00000      10.00000     121.00000       0.00000  
topohru00079           0.06280      30.00000      30.00000     121.00000       0.00000  
topohru00080           0.02091      90.00000      90.00000     121.00000       0.00000  
topohru00081           0.14829      10.00000      10.00000     121.00000       0.00000  
topohru00082           0.23195      10.00000      10.00000     121.00000       0.00000  
topohru00083           0.34716      10.00000      10.00000     121.00000       0.00000  
topohru00084           0.01862      90.00000      90.00000     121.00000       0.00000  
topohru00085           0.05780      30.00000      30.00000     121.00000       0.00000  
topohru00086           0.23600      10.00000      10.00000     121.00000       0.00000  
topohru00087           0.14186      10.00000      10.00000     121.00000       0.00000  
topohru00088           0.02208      90.00000      90.00000     121.00000       0.00000  
topohru00089           0.05348      30.00000      30.00000     121.00000       0.00000  
topohru00090           0.06496      30.00000      30.00000     121.00000       0.00000  
topohru00091           0.02156      90.00000      90.00000     121.00000       0.00000  
topohru00092           0.15298      10.00000      10.00000     121.00000       0.00000  
topohru00093           0.23442      10.00000      10.00000     121.00000       0.00000  
topohru00094           0.34658      10.00000      10.00000     121.00000       0.00000  
topohru00095           0.06356      30.00000      30.00000     121.00000       0.00000  
topohru00096           0.02075      90.00000      90.00000     121.00000       0.00000  
topohru00097           0.02516      90.00000      90.00000     121.00000       0.00000  
topohru00098           0.05908      30.00000      30.00000     121.00000       0.00000  
topohru00099           0.01604      90.00000      90.00000     121.00000       0.00000  
topohru00100           0.06292      30.00000      30.00000     121.00000       0.00000  
topohru00101           0.17353      10.00000      10.00000     121.00000       0.00000  
topohru00102           0.02691      90.00000      90.00000     121.00000       0.00000  
topohru00103           0.04020      60.00000      60.00000     121.00000       0.00000  
topohru00104           0.32300      10.00000      10.00000     121.00000       0.00000  
topohru00105           0.07018      30.00000      30.00000     121.00000       0.00000  
topohru00106           0.23165      10.00000      10.00000     121.00000       0.00000  
topohru00107           0.15237      10.00000      10.00000     121.00000       0.00000  
topohru00108           0.01942      90.00000      90.00000     121.00000       0.00000  
topohru00109           0.01749      90.00000      90.00000     121.00000       0.00000  
topohru00110           0.06364      30.00000      30.00000     121.00000       0.00000  
topohru00111           0.12400      10.00000      10.00000     121.00000       0.00000  
topohru00112           0.01998      90.00000      90.00000     121.00000       0.00000  
topohru00113           0.06332      30.00000      30.00000     121.00000       0.00000  
topohru00114           0.12400      10.00000      10.00000     121.00000       0.00000  
topohru00115           0.06522      30.00000      30.00000     121.00000       0.00000  
topohru00116           0.14523      10.00000      10.00000     121.00000       0.00000  
topohru00117           0.02037      90.00000      90.00000     121.00000       0.00000  
topohru00118           0.22940      10.00000      10.00000     121.00000       0.00000  
topohru00119           0.32210      10.00000      10.00000     121.00000       0.00000  
topohru00120           0.02106      90.00000      90.00000     121.00000       0.00000  
topohru00121           0.06560      30.00000      30.00000     121.00000       0.00000  
topohru00122           0.14457      10.00000      10.00000     121.00000       0.00000  
topohru00123           0.23299      10.00000      10.00000     121.00000       0.00000  
topohru00124           0.38629      10.00000      10.00000     121.00000       0.00000  
topohru00125           0.06334      30.00000      30.00000     121.00000       0.00000  
topohru00126           0.02127      90.00000      90.00000     121.00000       0.00000  
topohru00127           0.22000      10.00000      10.00000     121.00000       0.00000  
topohru00128           0.14293      10.00000      10.00000     121.00000       0.00000  
topohru00129           0.01820      90.00000      90.00000     121.00000       0.00000  
topohru00130           0.05285      30.00000      30.00000     121.00000       0.00000  
topohru00131           0.02191      90.00000      90.00000     121.00000       0.00000  
topohru00132           0.05491      30.00000      30.00000     121.00000       0.00000  
topohru00133           0.06613      30.00000      30.00000     121.00000       0.00000  
topohru00134           0.02040      90.00000      90.00000     121.00000       0.00000  
topohru00135           0.14152      10.00000      10.00000     121.00000       0.00000  
topohru00136           0.26000      10.00000      10.00000     121.00000       0.00000  
topohru00137           0.01265      90.00000      90.00000     121.00000       0.00000  
topohru00138           0.01731      90.00000      90.00000     121.00000       0.00000  
topohru00139           0.05200      30.00000      30.00000     121.00000       0.00000  
topohru00140           0.01648      90.00000      90.00000     121.00000       0.00000  
topohru00141           0.05407      30.00000      30.00000     121.00000       0.00000  
topohru00142           0.02114      90.00000      90.00000     121.00000       0.00000  
topohru00143           0.06355      30.00000      30.00000     121.00000       0.00000  
topohru00144           0.14354      10.00000      10.00000     121.00000       0.00000  
topohru00145           0.30611      10.00000      10.00000     121.00000       0.00000  
topohru00146           0.21830      10.00000      10.00000     121.00000       0.00000  
topohru00147           0.06279      30.00000      30.00000     121.00000       0.00000  
topohru00148           0.02126      90.00000      90.00000     121.00000       0.00000  
topohru00149           0.14759      10.00000      10.00000     121.00000       0.00000  
topohru00150           0.23882      10.00000      10.00000     121.00000       0.00000  
topohru00151           0.37168      10.00000      10.00000     121.00000       0.00000  
topohru00152           0.06381      30.00000      30.00000     121.00000       0.00000  
topohru00153           0.02178      90.00000      90.00000     121.00000       0.00000  
topohru00154           0.15100      10.00000      10.00000     121.00000       0.00000  
topohru00155           0.23345      10.00000      10.00000     121.00000       0.00000  
topohru00156           0.35515      10.00000      10.00000     121.00000       0.00000  
topohru00157           0.01914      90.00000      90.00000     121.00000       0.00000  
topohru00158           0.05556      30.00000      30.00000     121.00000       0.00000  
topohru00159           0.02232      90.00000      90.00000     121.00000       0.00000  
topohru00160           0.06830      30.00000      30.00000     121.00000       0.00000  
topohru00161           0.13163      10.00000      10.00000     121.00000       0.00000  
topohru00162           0.05922      30.00000      30.00000     121.00000       0.00000  
topohru00163           0.02239      90.00000      90.00000     121.00000       0.00000  
topohru00164           0.01990      90.00000      90.00000     121.00000       0.00000  
topohru00165           0.06234      30.00000      30.00000     121.00000       0.00000  
topohru00166           0.02340      90.00000      90.00000     121.00000       0.00000  
topohru00167           0.06090      30.00000      30.00000     121.00000       0.00000  
topohru00168           0.14640      10.00000      10.00000     121.00000       0.00000  
topohru00169           0.02151      90.00000      90.00000     121.00000       0.00000  
topohru00170           0.04912      60.00000      60.00000     121.00000       0.00000  
topohru00171           0.02459      90.00000      90.00000     121.00000       0.00000  
topohru00172           0.05450      30.00000      30.00000     121.00000       0.00000  
topohru00173           0.02084      90.00000      90.00000     121.00000       0.00000  
topohru00174           0.06412      30.00000      30.00000     121.00000       0.00000  
topohru00175           0.16655      10.00000      10.00000     121.00000       0.00000  
topohru00176           0.05779      30.00000      30.00000     121.00000       0.00000  
topohru00177           0.01883      90.00000      90.00000     121.00000       0.00000  
topohru00178           0.01836      90.00000      90.00000     121.00000       0.00000  
topohru00179           0.00096     121.00000     121.00000     121.00000       0.00000  
topohru00180           0.02959      90.00000      90.00000     121.00000       0.00000  
topohru00181           0.04800      60.00000      60.00000     121.00000       0.00000  
topohru00182           0.01287      90.00000      90.00000     121.00000       0.00000  
topohru00183           0.01858      90.00000      90.00000     121.00000       0.00000  
topohru00184           0.05283      30.00000      30.00000     121.00000       0.00000  
topohru00185           0.01952      90.00000      90.00000     121.00000       0.00000  
topohru00186           0.05692      30.00000      30.00000     121.00000       0.00000  
topohru00187           0.13909      10.00000      10.00000     121.00000       0.00000  
topohru00188           0.22605      10.00000      10.00000     121.00000       0.00000  
topohru00189           0.37626      10.00000      10.00000     121.00000       0.00000  
topohru00190           0.02045      90.00000      90.00000     121.00000       0.00000  
topohru00191           0.06173      30.00000      30.00000     121.00000       0.00000  
topohru00192           0.15328      10.00000      10.00000     121.00000       0.00000  
topohru00193           0.23517      10.00000      10.00000     121.00000       0.00000  
topohru00194           0.32849      10.00000      10.00000     121.00000       0.00000  
topohru00195           0.02094      90.00000      90.00000     121.00000       0.00000  
topohru00196           0.04454      60.00000      60.00000     121.00000       0.00000  
topohru00197           0.01737      90.00000      90.00000     121.00000       0.00000  
topohru00198           0.05093      30.00000      30.00000     121.00000       0.00000  
topohru00199           0.06000      30.00000      30.00000     121.00000       0.00000  
topohru00200           0.02800      90.00000      90.00000     121.00000       0.00000  
topohru00201           0.02059      90.00000      90.00000     121.00000       0.00000  
topohru00202           0.06600      30.00000      30.00000     121.00000       0.00000  
topohru00203           0.14189      10.00000      10.00000     121.00000       0.00000  
topohru00204           0.24400      10.00000      10.00000     121.00000       0.00000  
topohru00205           0.06941      30.00000      30.00000     121.00000       0.00000  
topohru00206           0.01783      90.00000      90.00000     121.00000       0.00000  
topohru00207           0.21978      10.00000      10.00000     121.00000       0.00000  
topohru00208           0.31600      10.00000      10.00000     121.00000       0.00000  
topohru00209           0.14954      10.00000      10.00000     121.00000       0.00000  
topohru00210           0.06441      30.00000      30.00000     121.00000       0.00000  
topohru00211           0.02015      90.00000      90.00000     121.00000       0.00000  
topohru00212           0.14403      10.00000      10.00000     121.00000       0.00000  
topohru00213           0.21283      10.00000      10.00000     121.00000       0.00000  
topohru00214           0.05845      30.00000      30.00000     121.00000       0.00000  
topohru00215           0.02305      90.00000      90.00000     121.00000       0.00000  
topohru00216           0.06989      30.00000      30.00000     121.00000       0.00000  
topohru00217           0.01907      90.00000      90.00000     121.00000       0.00000  
topohru00218           0.14677      10.00000      10.00000     121.00000       0.00000  
topohru00219           0.22777      10.00000      10.00000     121.00000       0.00000  
topohru00220           0.32268      10.00000      10.00000     121.00000       0.00000  
topohru00221           0.01675      90.00000      90.00000     121.00000       0.00000  
topohru00222           0.07051      30.00000      30.00000     121.00000       0.00000  
topohru00223           0.45000      10.00000      10.00000     121.00000       0.00000  
topohru00224           0.15484      10.00000      10.00000     121.00000       0.00000  
topohru00225           0.23200      10.00000      10.00000     121.00000       0.00000  
topohru00226           0.01840      90.00000      90.00000     121.00000       0.00000  
topohru00227           0.06772      30.00000      30.00000     121.00000       0.00000  
topohru00228           0.15475      10.00000      10.00000     121.00000       0.00000  
topohru00229           0.01970      90.00000      90.00000     121.00000       0.00000  
topohru00230           0.05955      30.00000      30.00000     121.00000       0.00000  
topohru00231           0.22174      10.00000      10.00000     121.00000       0.00000  
topohru00232           0.28000      10.00000      10.00000     121.00000       0.00000  
topohru00233           0.14802      10.00000      10.00000     121.00000       0.00000  
topohru00234           0.02032      90.00000      90.00000     121.00000       0.00000  
topohru00235           0.06461      30.00000      30.00000     121.00000       0.00000  
topohru00236           0.14550      10.00000      10.00000     121.00000       0.00000  
topohru00237           0.23281      10.00000      10.00000     121.00000       0.00000  
topohru00238           0.33910      10.00000      10.00000     121.00000       0.00000  
topohru00239           0.01910      90.00000      90.00000     121.00000       0.00000  
topohru00240           0.04833      60.00000      60.00000     121.00000       0.00000  
topohru00241           0.01297      90.00000      90.00000     121.00000       0.00000  
topohru00242           0.01971      90.00000      90.00000     121.00000       0.00000  
topohru00243           0.05722      30.00000      30.00000     121.00000       0.00000  
topohru00244           0.07328      30.00000      30.00000     121.00000       0.00000  
topohru00245           0.15002      10.00000      10.00000     121.00000       0.00000  
topohru00246           0.02133      90.00000      90.00000     121.00000       0.00000  
topohru00247           0.22656      10.00000      10.00000     121.00000       0.00000  
topohru00248           0.33865      10.00000      10.00000     121.00000       0.00000  
topohru00249           0.06812      30.00000      30.00000     121.00000       0.00000  
topohru00250           0.15030      10.00000      10.00000     121.00000       0.00000  
topohru00251           0.02054      90.00000      90.00000     121.00000       0.00000  
topohru00252           0.22781      10.00000      10.00000     121.00000       0.00000  
topohru00253           0.32410      10.00000      10.00000     121.00000       0.00000  
topohru00254           0.06548      30.00000      30.00000     121.00000       0.00000  
topohru00255           0.02059      90.00000      90.00000     121.00000       0.00000  
topohru00256           0.13743      10.00000      10.00000     121.00000       0.00000  
topohru00257           0.05800      30.00000      30.00000     121.00000       0.00000  
topohru00258           0.02572      90.00000      90.00000     121.00000       0.00000  
topohru00259           0.02404      90.00000      90.00000     121.00000       0.00000  
topohru00260           0.05659      30.00000      30.00000     121.00000       0.00000  
topohru00261           0.14993      10.00000      10.00000     121.00000       0.00000  
topohru00262           0.02400      90.00000      90.00000     121.00000       0.00000  
topohru00263           0.07253      30.00000      30.00000     121.00000       0.00000  
topohru00264           0.15476      10.00000      10.00000     121.00000       0.00000  
topohru00265           0.07170      30.00000      30.00000     121.00000       0.00000  
topohru00266           0.02151      90.00000      90.00000     121.00000       0.00000  
topohru00267           0.23501      10.00000      10.00000     121.00000       0.00000  
topohru00268           0.36852      10.00000      10.00000     121.00000       0.00000  
topohru00269           0.06589      30.00000      30.00000     121.00000       0.00000  
topohru00270           0.01934      90.00000      90.00000     121.00000       0.00000  
topohru00271           0.14811      10.00000      10.00000     121.00000       0.00000  
topohru00272           0.22132      10.00000      10.00000     121.00000       0.00000  
topohru00273           0.30184      10.00000      10.00000     121.00000       0.00000  
topohru00274           0.01705      90.00000      90.00000     121.00000       0.00000  
topohru00275           0.05782      30.00000      30.00000     121.00000       0.00000  
topohru00276           0.15287      10.00000      10.00000     121.00000       0.00000  
topohru00277           0.22480      10.00000      10.00000     121.00000       0.00000  
topohru00278           0.30900      10.00000      10.00000     121.00000       0.00000  
topohru00279           0.01837      90.00000      90.00000     121.00000       0.00000  
topohru00280           0.05555      30.00000      30.00000     121.00000       0.00000  
topohru00281           0.13200      10.00000      10.00000     121.00000       0.00000  
topohru00282           0.01345      90.00000      90.00000     121.00000       0.00000  
topohru00283           0.05596      30.00000      30.00000     121.00000       0.00000  
topohru00284           0.01235      90.00000      90.00000     121.00000       0.00000  
topohru00285           0.04613      60.00000      60.00000     121.00000       0.00000  
topohru00286           0.00086     121.00000     121.00000     121.00000       0.00000  
topohru00287           0.00100     121.00000     121.00000     121.00000       0.00000  
topohru00288           0.07182      30.00000      30.00000     121.00000       0.00000  
topohru00289           0.02314      90.00000      90.00000     121.00000       0.00000  
topohru00290           0.15331      10.00000      10.00000     121.00000       0.00000  
topohru00291           0.23375      10.00000      10.00000     121.00000       0.00000  
topohru00292           0.35535      10.00000      10.00000     121.00000       0.00000  
topohru00293           0.06449      30.00000      30.00000     121.00000       0.00000  
topohru00294           0.02090      90.00000      90.00000     121.00000       0.00000  
topohru00295           0.14200      10.00000      10.00000     121.00000       0.00000  
topohru00296           0.22577      10.00000      10.00000     121.00000       0.00000  
topohru00297           0.31941      10.00000      10.00000     121.00000       0.00000  
topohru00298           0.02114      90.00000      90.00000     121.00000       0.00000  
topohru00299           0.05919      30.00000      30.00000     121.00000       0.00000  
topohru00300           0.13805      10.00000      10.00000     121.00000       0.00000  
topohru00301           0.20800      10.00000      10.00000     121.00000       0.00000  
topohru00302           0.01946      90.00000      90.00000     121.00000       0.00000  
topohru00303           0.06359      30.00000      30.00000     121.00000       0.00000  
topohru00304           0.39474      10.00000      10.00000     121.00000       0.00000  
topohru00305           0.15445      10.00000      10.00000     121.00000       0.00000  
topohru00306           0.23688      10.00000      10.00000     121.00000       0.00000  
topohru00307           0.02494      90.00000      90.00000     121.00000       0.00000  
topohru00308           0.07150      30.00000      30.00000     121.00000       0.00000  
topohru00309           0.02055      90.00000      90.00000     121.00000       0.00000  
topohru00310           0.06106      30.00000      30.00000     121.00000       0.00000  
topohru00311           0.14489      10.00000      10.00000     121.00000       0.00000  
topohru00312           0.21816      10.00000      10.00000     121.00000       0.00000  
topohru00313           0.01985      90.00000      90.00000     121.00000       0.00000  
topohru00314           0.05459      30.00000      30.00000     121.00000       0.00000  
topohru00315           0.14357      10.00000      10.00000     121.00000       0.00000  
topohru00316           0.20000      10.00000      10.00000     121.00000       0.00000  
topohru00317           0.05392      30.00000      30.00000     121.00000       0.00000  
topohru00318           0.01968      90.00000      90.00000     121.00000       0.00000  
topohru00319           0.13200      10.00000      10.00000     121.00000       0.00000  
topohru00320           0.01638      90.00000      90.00000     121.00000       0.00000  
topohru00321           0.05760      30.00000      30.00000     121.00000       0.00000  
topohru00322           0.01395      90.00000      90.00000     121.00000       0.00000  
topohru00323           0.05129      30.00000      30.00000     121.00000       0.00000  
topohru00324           0.00088     121.00000     121.00000     121.00000       0.00000  
topohru00325           0.00088     121.00000     121.00000     121.00000       0.00000  
topohru00326           0.05930      30.00000      30.00000     121.00000       0.00000  
topohru00327           0.01862      90.00000      90.00000     121.00000       0.00000  
topohru00328           0.13796      10.00000      10.00000     121.00000       0.00000  
topohru00329           0.05849      30.00000      30.00000     121.00000       0.00000  
topohru00330           0.02199      90.00000      90.00000     121.00000       0.00000  
topohru00331           0.12400      10.00000      10.00000     121.00000       0.00000  