water_balance.sft: written by SWAT+ editor v3.0.8 on 2025-11-17 21:11 for SWAT+ rev.61.0.1
1
name                   num  
basin                    1  
    name                  surq_rto      latq_rto      perc_rto        et_rto     tileq_rto           pet           sed           wyr           bfr          solp  
    basin                  0.00000       0.00000       0.00000       0.00000       0.00000       0.00000       0.00000       0.00000       0.00000       0.00000  
