chandeg.con: written by SWAT+ editor v3.0.8 on 2025-11-17 21:10 for SWAT+ rev.61.0.1
      id  name                gis_id          area           lat           lon          elev      lcha               wst       cst      ovfl      rule   out_tot       obj_typ    obj_id       hyd_typ          frac
       1  cha001                   1  3434818.76480      42.36012      99.54132             0         1     s42531n99281e         0         0         0         1           sdc        45           tot       1.00000
       2  cha002                   2  3102781.23520      42.44093      98.99853             0         2     s42531n99281e         0         0         0         1           sdc        46           tot       1.00000
       3  cha003                   3  2731487.43680      42.47547      98.72557             0         3     s42531n99281e         0         0         0         1           sdc         2           tot       1.00000
       4  cha004                   4  242168.75520      42.45401      98.74288             0         4     s42531n99281e         0         0         0         1           sdc         2           tot       1.00000
       5  cha005                   5  1016712.49920      42.24514      98.14412             0         5     s42781n98031e         0         0         0         1           sdc         3           tot       1.00000
       6  cha006                   6  129550.00320      42.33286      98.74577             0         6     s42531n99281e         0         0         0         1           sdc         4           tot       1.00000
       7  cha007                   7  112387.49440      42.34226      98.58782             0         7     s42781n98031e         0         0         0         1           sdc         4           tot       1.00000
       8  cha008                   8  1689812.48000      42.55338      98.41588             0         8     s42781n98031e         0         0         0         1           sdc         3           tot       1.00000
       9  cha009                   9  1289181.28640      42.61815      98.12374             0         9     s42781n98031e         0         0         0         1           sdc         8           tot       1.00000
      10  cha010                  10  1131481.29280      42.64178      98.08432             0        10     s42781n98031e         0         0         0         1           sdc         9           tot       1.00000
      11  cha011                  11  1018993.76640      42.69370      97.75092             0        11     s42781n98031e         0         0         0         1           sdc        10           tot       1.00000
      12  cha012                  12  592356.24960      42.72368      97.43790             0        12     s42531n97031e         0         0         0         1           sdc        11           tot       1.00000
      13  cha013                  13  539350.01600      42.41316     100.72518             0        13    s42781n100531e         0         0         0         1           sdc        52           tot       1.00000
      14  cha014                  14  519606.27200      42.72114      97.11417             0        14     s42531n97031e         0         0         0         1           sdc        12           tot       1.00000
      15  cha015                  15  274093.74720      42.48400     100.54055             0        15    s42781n100531e         0         0         0         1           sdc        13           tot       1.00000
      16  cha016                  16  152268.74880      42.42023     100.59690             0        16    s42781n100531e         0         0         0         1           sdc        13           tot       1.00000
      17  cha017                  17  234893.74720      42.47055     100.82041             0        17    s42781n100531e         0         0         0         1           sdc        52           tot       1.00000
      18  cha018                  18  115775.00160      42.45580      99.26876             0        18     s42531n99281e         0         0         0         1           sdc        46           tot       1.00000
      19  cha019                  19  159100.00640      42.54126      96.80150             0        19     s42531n97031e         0         0         0         1           sdc        14           tot       1.00000
      20  cha020                  20  108350.00320      42.57664      98.00714             0        20     s42781n98031e         0         0         0         1           sdc         8           tot       1.00000
      21  cha021                  21  135725.00480      42.60841     100.40148             0        21    s42781n100531e         0         0         0         1           sdc        15           tot       1.00000
      22  cha022                  22   72537.49760      42.67324      97.41227             0        22     s42531n97031e         0         0         0         1           sdc        12           tot       1.00000
      23  cha023                  23  104924.99840      42.69751      97.99683             0        23     s42781n98031e         0         0         0         1           sdc        10           tot       1.00000
      24  cha024                  24  137200.00000      42.69199     100.34042             0        24    s42781n100531e         0         0         0         1           sdc        15           tot       1.00000
      25  cha025                  25  107131.25120      42.71489      96.72259             0        25     s42531n97031e         0         0         0         1           sdc        14           tot       1.00000
      26  cha026                  26  291399.98720      42.63170      99.74624             0        26     s42531n99281e         0         0         0         1           sdc        45           tot       1.00000
      27  cha027                  27  149906.25280      42.79250      98.09139             0        27     s42781n98031e         0         0         0         1           sdc         9           tot       1.00000
      28  cha028                  28  255687.50080      42.86447      97.20391             0        28     s42531n97031e         0         0         0         1           sdc        11           tot       1.00000
      29  cha029                  29  8751919.10400      42.15218     101.14277             0        29    s42031n100531e         0         0         0         0
      30  cha030                  30  8561681.20320      42.20050     101.04497             0        30    s42031n100531e         0         0         0         1           sdc        29           tot       1.00000
      31  cha031                  31  7502325.35040      42.26693     100.84918             0        31    s42031n100531e         0         0         0         1           sdc        30           tot       1.00000
      32  cha032                  32  7335324.87680      42.28478     100.67133             0        32    s42031n100531e         0         0         0         1           sdc        31           tot       1.00000
      33  cha033                  33  3498743.80800      42.22991     100.38578             0        33    s42031n100531e         0         0         0         1           sdc        32           tot       1.00000
      34  cha034                  34  3296343.65440      42.11770     100.03702             0        34    s42031n100531e         0         0         0         1           sdc        33           tot       1.00000
      35  cha035                  35  3142512.43520      42.04557      99.88870             0        35     s41781n99531e         0         0         0         1           sdc        34           tot       1.00000
      36  cha036                  36  2982993.71520      41.99936      99.81231             0        36     s41781n99531e         0         0         0         1           sdc        35           tot       1.00000
      37  cha037                  37  2720300.03200      41.87817      99.75221             0        37     s41781n99531e         0         0         0         1           sdc        36           tot       1.00000
      38  cha038                  38  2489643.82720      41.75875      99.73799             0        38     s41781n99531e         0         0         0         1           sdc        37           tot       1.00000
      39  cha039                  39  2356937.52320      41.65769      99.35035             0        39     s41781n99531e         0         0         0         1           sdc        38           tot       1.00000
      40  cha040                  40  2048650.03520      41.55659      98.96218             0        40     s41281n98531e         0         0         0         1           sdc        39           tot       1.00000
      41  cha041                  41  1940825.08800      41.50259      98.79922             0        41     s41281n98531e         0         0         0         1           sdc        40           tot       1.00000
      42  cha042                  42  1535962.52160      41.47726      98.65984             0        42     s41281n98531e         0         0         0         1           sdc        41           tot       1.00000
      43  cha043                  43  1111443.76320      41.42012      98.55533             0        43     s41281n98531e         0         0         0         1           sdc        42           tot       1.00000
      44  cha044                  44  7942118.60480      41.42752     100.63894             0        44    s41531n100781e         0         0         0         0
      45  cha045                  45  3830937.60000      42.33257     100.17142             0        45    s42031n100531e         0         0         0         1           sdc        32           tot       1.00000
      46  cha046                  46  3239849.98400      42.38105      99.29015             0        46     s42531n99281e         0         0         0         1           sdc         1           tot       1.00000
      47  cha047                  47  998637.46560      42.26169     100.93402             0        47    s42031n100531e         0         0         0         1           sdc        30           tot       1.00000
      48  cha048                  48  860218.77760      42.33354     100.84686             0        48    s42031n100531e         0         0         0         1           sdc        47           tot       1.00000
      49  cha049                  49  104275.00160      41.43970      99.00691             0        49     s41281n98531e         0         0         0         1           sdc        40           tot       1.00000
      50  cha050                  50  266006.24640      41.22183      98.68517             0        50     s41281n98531e         0         0         0         1           sdc        41           tot       1.00000
      51  cha051                  51  214131.25120      41.48788      99.65574             0        51     s41781n99531e         0         0         0         1           sdc        37           tot       1.00000
      52  cha052                  52  778768.74240      42.39943     100.78452             0        52    s42031n100531e         0         0         0         1           sdc        48           tot       1.00000
      53  cha053                  53  136568.75520      42.52233     101.06881             0        53    s42781n100531e         0         0         0         1           sdc        47           tot       1.00000
      54  cha054                  54  190218.75200      42.36603     101.24206             0        54    s43031n101531e         0         0         0         1           sdc        29           tot       1.00000
      55  cha055                  55  578200.01280      41.97428      97.37862             0        55     s41781n97031e         0         0         0         1           sdc         5           tot       1.00000
      56  cha056                  56  266112.51200      41.88808      97.07668             0        56     s41781n97031e         0         0         0         1           sdc        55           tot       1.00000
      57  cha057                  57  188081.25440      41.95619      97.13820             0        57     s41781n97031e         0         0         0         1           sdc        55           tot       1.00000
      58  cha058                  58  123518.74560      41.62268      99.72351             0        58     s41781n99531e         0         0         0         1           sdc        38           tot       1.00000
      59  cha059                  59  112400.00000      41.59942      98.95098             0        59     s41281n98531e         0         0         0         1           sdc        39           tot       1.00000
      60  cha060                  60  142506.25280      41.84940      99.93166             0        60     s41781n99531e         0         0         0         1           sdc        35           tot       1.00000
      61  cha061                  61  171824.99840      41.69888      96.77643             0        61     s41781n97031e         0         0         0         1           sdc        56           tot       1.00000
      62  cha062                  62  166849.99680      41.98612     100.17934             0        62    s42031n100531e         0         0         0         1           sdc        33           tot       1.00000
      63  cha063                  63  212787.49440      41.87805      99.49523             0        63     s41781n99531e         0         0         0         1           sdc        36           tot       1.00000
      64  cha064                  64  424481.25440      41.60311      98.16079             0        64     s41531n97781e         0         0         0         1           sdc        42           tot       1.00000
      65  cha065                  65   73724.99840      41.79176      96.95258             0        65     s41781n97031e         0         0         0         1           sdc        56           tot       1.00000
      66  cha066                  66  103037.49760      42.04584      99.74917             0        66     s41781n99531e         0         0         0         1           sdc        34           tot       1.00000
      67  cha067                  67  136093.74720      42.18547     100.55448             0        67    s42031n100531e         0         0         0         1           sdc        31           tot       1.00000
      68  cha068                  68   73249.99680      41.98943      97.59334             0        68     s41531n97781e         0         0         0         1           sdc         5           tot       1.00000
      69  cha069                  69   84831.25120      41.95582      96.97870             0        69     s41781n97031e         0         0         0         1           sdc        57           tot       1.00000
      70  cha070                  70  101756.24960      42.00349      97.01329             0        70     s41781n97031e         0         0         0         1           sdc        57           tot       1.00000
      71  cha071                  71   68781.24800      42.33934      99.33043             0        71     s42531n99281e         0         0         0         1           sdc         1           tot       1.00000
      72  cha072                  72  224800.00000      41.32381      98.13243             0        72     s41281n98531e         0         0         0         1           sdc        43           tot       1.00000
      73  cha073                  73  7501306.26560      40.81316     100.06684             0        73     s40781n99781e         0         0         0         1           sdc        44           tot       1.00000
      74  cha074                  74  7323280.99840      40.62877      99.91090             0        74     s40531n99781e         0         0         0         1           sdc        73           tot       1.00000
      75  cha075                  75  3610700.18560      40.14781      99.69021             0        75     s40531n99781e         0         0         0         1           sdc        74           tot       1.00000
      76  cha076                  76  3690887.57760      40.42699      99.62801             0        76     s40531n99781e         0         0         0         1           sdc        74           tot       1.00000
      77  cha077                  77  840412.51840      41.31277      98.42514             0        77     s41281n98531e         0         0         0         1           sdc        43           tot       1.00000
      78  cha078                  78  646606.23360      41.13463      98.14879             0        78     s40781n98281e         0         0         0         1           sdc        77           tot       1.00000
      79  cha079                  79  404112.51200      41.01005      97.84581             0        79     s40781n98281e         0         0         0         1           sdc        78           tot       1.00000
      80  cha080                  80  283299.99360      41.10916      97.56176             0        80     s41031n97281e         0         0         0         1           sdc        79           tot       1.00000
      81  cha081                  81   77287.50080      40.38540      97.18189             0        81     s40531n97531e         0         0         0         1           sdc       112           tot       1.00000
      82  cha082                  82  110612.50560      41.28568      97.22152             0        82     s41031n97281e         0         0         0         1           sdc        80           tot       1.00000
      83  cha083                  83  289018.75200      40.92679     100.11047             0        83     s40781n99781e         0         0         0         1           sdc        44           tot       1.00000
      84  cha084                  84   96649.99680      40.46853      97.23613             0        84     s40531n97531e         0         0         0         1           sdc       112           tot       1.00000
      85  cha085                  85  156624.99840      40.65591      99.80824             0        85     s40531n99781e         0         0         0         1           sdc        73           tot       1.00000
      86  cha086                  86   80356.24960      40.89698     100.02345             0        86     s40781n99781e         0         0         0         1           sdc        83           tot       1.00000
      87  cha087                  87  181256.25600      40.95066      99.79932             0        87     s40781n99781e         0         0         0         1           sdc        83           tot       1.00000
      88  cha088                  88   74681.24800      40.96289      98.72878             0        88     s41281n98531e         0         0         0         1           sdc        50           tot       1.00000
      89  cha089                  89   77168.74880      40.96198      98.70921             0        89     s41281n98531e         0         0         0         1           sdc        50           tot       1.00000
      90  cha090                  90  102449.99680      40.97154      97.91614             0        90     s40781n98281e         0         0         0         1           sdc        78           tot       1.00000
      91  cha091                  91  114831.24480      40.97751      97.61303             0        91     s41031n97281e         0         0         0         1           sdc        79           tot       1.00000
      92  cha092                  92  178824.99840      41.15240      98.39418             0        92     s41281n98531e         0         0         0         1           sdc        77           tot       1.00000
      93  cha093                  93   77318.75200      41.20677      97.29980             0        93     s41031n97281e         0         0         0         1           sdc        80           tot       1.00000
      94  cha094                  94  3151825.10080      39.72877      99.52568             0        94     s39281n99781e         0         0         0         1           sdc        75           tot       1.00000
      95  cha095                  95  2875062.47680      39.56231      99.65653             0        95     s39281n99781e         0         0         0         1           sdc        94           tot       1.00000
      96  cha096                  96  3454768.74240      40.27627      99.20502             0        96     s40281n99031e         0         0         0         1           sdc        76           tot       1.00000
      97  cha097                  97  1985074.99520      40.26031      98.92043             0        97     s40281n99031e         0         0         0         1           sdc        96           tot       1.00000
      98  cha098                  98  1836981.24800      40.26747      98.78661             0        98     s40281n99031e         0         0         0         1           sdc        97           tot       1.00000
      99  cha099                  99  1765643.67360      40.25997      98.69743             0        99     s40281n98531e         0         0         0         1           sdc        98           tot       1.00000
     100  cha100                 100  1340912.53760      40.06782      98.93183             0       100     s40281n99031e         0         0         0         1           sdc        96           tot       1.00000
     101  cha101                 101  1109443.78880      39.87011      98.85279             0       101     s40281n99031e         0         0         0         1           sdc       100           tot       1.00000
     102  cha102                 102  1540250.00960      40.28577      98.49455             0       102     s40281n98531e         0         0         0         1           sdc        99           tot       1.00000
     103  cha103                 103  1396618.75200      40.32711      98.32004             0       103     s40281n98531e         0         0         0         1           sdc       102           tot       1.00000
     104  cha104                 104  1174224.99840      40.33097      98.26424             0       104     s40281n98531e         0         0         0         1           sdc       103           tot       1.00000
     105  cha105                 105  1014768.74240      39.81123      98.80264             0       105     s40281n99031e         0         0         0         1           sdc       101           tot       1.00000
     106  cha106                 106  935018.70080      40.34792      98.11726             0       106     s40281n98531e         0         0         0         1           sdc       104           tot       1.00000
     107  cha107                 107  832912.48640      40.36942      97.99676             0       107     s40531n97531e         0         0         0         1           sdc       106           tot       1.00000
     108  cha108                 108  765643.72480      40.37108      97.98610             0       108     s40531n97531e         0         0         0         1           sdc       107           tot       1.00000
     109  cha109                 109  423887.48800      40.39457      97.82180             0       109     s40531n97531e         0         0         0         1           sdc       108           tot       1.00000
     110  cha110                 110  302025.01120      40.41970      97.63019             0       110     s40531n97531e         0         0         0         1           sdc       109           tot       1.00000
     111  cha111                 111  796150.01600      39.44659      98.34890             0       111     s39031n98281e         0         0         0         1           sdc       105           tot       1.00000
     112  cha112                 112  227474.99520      40.44345      97.43857             0       112     s40531n97531e         0         0         0         1           sdc       110           tot       1.00000
     113  cha113                 113  171518.74560      40.33446      98.28940             0       113     s40281n98531e         0         0         0         1           sdc       103           tot       1.00000
     114  cha114                 114  303381.24800      39.74231      99.39839             0       114     s39281n99781e         0         0         0         1           sdc        75           tot       1.00000
     115  cha115                 115  187299.99360      39.72113      98.84436             0       115     s40281n99031e         0         0         0         1           sdc       100           tot       1.00000
     116  cha116                 116  275218.73920      39.62382      99.58832             0       116     s39281n99781e         0         0         0         1           sdc        94           tot       1.00000
     117  cha117                 117  182018.75200      39.48943      98.58804             0       117     s39031n98281e         0         0         0         1           sdc       105           tot       1.00000
     118  cha118                 118  139156.24960      39.51810      99.23606             0       118     s39031n99281e         0         0         0         1           sdc       114           tot       1.00000
     119  cha119                 119   77950.00320      40.41320      98.09162             0       119     s40781n98281e         0         0         0         1           sdc       113           tot       1.00000
     120  cha120                 120   77000.00000      40.42325      97.90156             0       120     s40531n97531e         0         0         0         1           sdc       106           tot       1.00000
     121  cha121                 121   68924.99840      40.43228      97.57637             0       121     s40531n97531e         0         0         0         1           sdc       110           tot       1.00000
     122  cha122                 122  341093.76000      40.23124      97.67605             0       122     s40031n97531e         0         0         0         1           sdc       108           tot       1.00000
     123  cha123                 123  111318.74560      39.69461      99.19113             0       123     s40281n99031e         0         0         0         1           sdc       114           tot       1.00000
     124  cha124                 124  234250.00960      39.96698      97.94249             0       124     s40031n97531e         0         0         0         1           sdc       104           tot       1.00000
     125  cha125                 125   94218.75200      39.83379      98.85879             0       125     s40281n99031e         0         0         0         1           sdc       101           tot       1.00000
     126  cha126                 126  153843.75040      39.92435      97.44852             0       126     s40031n97531e         0         0         0         1           sdc       122           tot       1.00000
     127  cha127                 127  194925.00480      40.03570      98.35094             0       127     s40281n98531e         0         0         0         1           sdc        99           tot       1.00000
     128  cha128                 128  124931.25120      40.02470      97.30083             0       128     s40031n97531e         0         0         0         1           sdc       122           tot       1.00000
     129  cha129                 129  109481.25440      40.18101      99.31118             0       129     s40281n99031e         0         0         0         1           sdc        76           tot       1.00000
     130  cha130                 130   70943.75040      40.22182      98.78299             0       130     s40281n99031e         0         0         0         1           sdc        97           tot       1.00000
     131  cha131                 131   66593.74720      40.27409      98.73814             0       131     s40281n98531e         0         0         0         1           sdc        98           tot       1.00000
     132  cha132                 132   66081.24800      40.33552      97.94302             0       132     s40531n97531e         0         0         0         1           sdc       107           tot       1.00000
     133  cha133                 133   74031.25120      40.37129      97.57805             0       133     s40531n97531e         0         0         0         1           sdc       109           tot       1.00000
     134  cha134                 134   72750.00320      40.35282      98.32370             0       134     s40281n98531e         0         0         0         1           sdc       102           tot       1.00000
     135  cha135                 135   91375.00160      40.38636      98.19615             0       135     s40281n98531e         0         0         0         1           sdc       113           tot       1.00000
     136  cha136                 136  2663112.49920      39.38569      99.89838             0       136     s39281n99781e         0         0         0         1           sdc        95           tot       1.00000
     137  cha137                 137  2472693.76000      39.27109     100.18075             0       137     s39281n99781e         0         0         0         1           sdc       136           tot       1.00000
     138  cha138                 138  2061462.52800      39.12727     100.37121             0       138    s38781n100781e         0         0         0         1           sdc       137           tot       1.00000
     139  cha139                 139  1028581.27360      38.85468     100.21196             0       139    s38781n100781e         0         0         0         1           sdc       138           tot       1.00000