ls_unit.ele: written by SWAT+ editor v3.0.8 on 2025-11-17 21:11 for SWAT+ rev.61.0.1
      id  name                   obj_typ  obj_typ_no      bsn_frac      sub_frac      reg_frac
       1  hru00001                   hru           1     9.3218E-5       0.00609       0.00000
       2  hru00002                   hru           2     9.5465E-5       0.00623       0.00000
       3  hru00003                   hru           3     3.3806E-4       0.02207       0.00000
       4  hru00004                   hru           4     1.0294E-2       0.67216       0.00000
       5  hru00005                   hru           5     4.4490E-3       0.29049       0.00000
       6  hru00006                   hru           6     4.4550E-5       0.00291       0.00000
       7  hru00007                   hru           7     7.4874E-7       0.00005       0.00000
       8  hru00008                   hru           8     1.2257E-3       0.11970       0.00000
       9  hru00009                   hru           9     3.9451E-3       0.38527       0.00000
      10  hru00010                   hru          10     9.4716E-5       0.00925       0.00000
      11  hru00011                   hru          11     1.1980E-5       0.00117       0.00000
      12  hru00012                   hru          12     3.7437E-6       0.00037       0.00000
      13  hru00013                   hru          13     2.8127E-3       0.27468       0.00000
      14  hru00014                   hru          14     9.2657E-4       0.09049       0.00000
      15  hru00015                   hru          15     6.2894E-5       0.00614       0.00000
      16  hru00016                   hru          16     1.1231E-6       0.00011       0.00000
      17  hru00017                   hru          17     4.8668E-6       0.00048       0.00000
      18  hru00018                   hru          18     9.3593E-6       0.00091       0.00000
      19  hru00019                   hru          19     7.1131E-6       0.00069       0.00000
      20  hru00020                   hru          20     3.7437E-7       0.00004       0.00000
      21  hru00021                   hru          21     4.0432E-5       0.00395       0.00000
      22  hru00022                   hru          22     3.8935E-5       0.00380       0.00000
      23  hru00023                   hru          23     6.7387E-6       0.00066       0.00000
      24  hru00024                   hru          24     7.4874E-7       0.00007       0.00000
      25  hru00025                   hru          25     5.2936E-4       0.05170       0.00000
      26  hru00026                   hru          26     4.7096E-4       0.04599       0.00000
      27  hru00027                   hru          27     3.9309E-5       0.00384       0.00000
      28  hru00028                   hru          28     4.8668E-6       0.00048       0.00000
      29  hru00029                   hru          29     3.7437E-7       0.00004       0.00000
      30  hru00030                   hru          30     1.8719E-6       0.00018       0.00000
      31  hru00031                   hru          31     3.2110E-3       0.35760       0.00000
      32  hru00032                   hru          32     5.0971E-3       0.56765       0.00000
      33  hru00033                   hru          33     4.1892E-4       0.04665       0.00000
      34  hru00034                   hru          34     9.9583E-5       0.01109       0.00000
      35  hru00035                   hru          35     4.6796E-5       0.00521       0.00000
      36  hru00036                   hru          36     2.9950E-6       0.00033       0.00000
      37  hru00037                   hru          37     7.4874E-7       0.00008       0.00000
      38  hru00038                   hru          38     5.9899E-5       0.00667       0.00000
      39  hru00039                   hru          39     3.5565E-5       0.00396       0.00000
      40  hru00040                   hru          40     1.1231E-6       0.00013       0.00000
      41  hru00041                   hru          41     3.7437E-6       0.00042       0.00000
      42  hru00042                   hru          42     1.8719E-6       0.00021       0.00000
      43  hru00043                   hru          43     2.4712E-3       0.39320       0.00000
      44  hru00044                   hru          44     3.2016E-3       0.50941       0.00000
      45  hru00045                   hru          45     3.6801E-4       0.05855       0.00000
      46  hru00046                   hru          46     7.2254E-5       0.01150       0.00000
      47  hru00047                   hru          47     2.9575E-5       0.00471       0.00000
      48  hru00048                   hru          48     8.5731E-5       0.01364       0.00000
      49  hru00049                   hru          49     5.0166E-5       0.00798       0.00000
      50  hru00050                   hru          50     2.6206E-6       0.00042       0.00000
      51  hru00051                   hru          51     1.1231E-6       0.00018       0.00000
      52  hru00052                   hru          52     7.4874E-7       0.00012       0.00000
      53  hru00053                   hru          53     1.1231E-6       0.00018       0.00000
      54  hru00054                   hru          54     3.7437E-7       0.00006       0.00000
      55  hru00055                   hru          55     3.7437E-7       0.00006       0.00000
      56  hru00056                   hru          56     3.6879E-3       0.21065       0.00000
      57  hru00057                   hru          57     2.7801E-3       0.15879       0.00000
      58  hru00058                   hru          58     8.7154E-4       0.04978       0.00000
      59  hru00059                   hru          59     2.9276E-4       0.01672       0.00000
      60  hru00060                   hru          60     1.8007E-4       0.01029       0.00000
      61  hru00061                   hru          61     2.2077E-3       0.12610       0.00000
      62  hru00062                   hru          62     2.6408E-3       0.15084       0.00000
      63  hru00063                   hru          63     5.4284E-5       0.00310       0.00000
      64  hru00064                   hru          64     3.4442E-4       0.01967       0.00000
      65  hru00065                   hru          65     9.1721E-5       0.00524       0.00000
      66  hru00066                   hru          66     1.5615E-3       0.08919       0.00000
      67  hru00067                   hru          67     9.4342E-5       0.00539       0.00000
      68  hru00068                   hru          68     1.9389E-3       0.11075       0.00000
      69  hru00069                   hru          69     5.6156E-6       0.00032       0.00000
      70  hru00070                   hru          70     1.1231E-5       0.00064       0.00000
      71  hru00071                   hru          71     1.4301E-4       0.00817       0.00000
      72  hru00072                   hru          72     2.2088E-4       0.01262       0.00000
      73  hru00073                   hru          73     4.4925E-6       0.00026       0.00000
      74  hru00074                   hru          74     3.7437E-7       0.00002       0.00000
      75  hru00075                   hru          75     2.1339E-4       0.01219       0.00000
      76  hru00076                   hru          76     1.5499E-4       0.00885       0.00000
      77  hru00077                   hru          77     6.7387E-6       0.00038       0.00000
      78  hru00078                   hru          78     7.4874E-7       0.00004       0.00000
      79  hru00079                   hru          79     2.9044E-3       0.19137       0.00000
      80  hru00080                   hru          80     5.8447E-3       0.38510       0.00000
      81  hru00081                   hru          81     2.1639E-4       0.01426       0.00000
      82  hru00082                   hru          82     6.2146E-5       0.00409       0.00000
      83  hru00083                   hru          83     3.1822E-5       0.00210       0.00000
      84  hru00084                   hru          84     4.0979E-3       0.27000       0.00000
      85  hru00085                   hru          85     9.9096E-4       0.06529       0.00000
      86  hru00086                   hru          86     7.4874E-7       0.00005       0.00000
      87  hru00087                   hru          87     1.6098E-5       0.00106       0.00000
      88  hru00088                   hru          88     1.7146E-4       0.01130       0.00000
      89  hru00089                   hru          89     4.5673E-5       0.00301       0.00000
      90  hru00090                   hru          90     3.0324E-4       0.01998       0.00000
      91  hru00091                   hru          91     3.6351E-4       0.02395       0.00000
      92  hru00092                   hru          92     3.5940E-5       0.00237       0.00000
      93  hru00093                   hru          93     1.3103E-5       0.00086       0.00000
      94  hru00094                   hru          94     9.7336E-6       0.00064       0.00000
      95  hru00095                   hru          95     1.1980E-5       0.00079       0.00000
      96  hru00096                   hru          96     2.0965E-5       0.00138       0.00000
      97  hru00097                   hru          97     1.2729E-5       0.00084       0.00000
      98  hru00098                   hru          98     4.8668E-6       0.00032       0.00000
      99  hru00099                   hru          99     8.9849E-6       0.00059       0.00000
     100  hru00100                   hru         100     7.1131E-6       0.00047       0.00000
     101  hru00101                   hru         101     3.7437E-7       0.00002       0.00000
     102  hru00102                   hru         102     1.8719E-6       0.00012       0.00000
     103  hru00103                   hru         103     3.7437E-7       0.00002       0.00000
     104  hru00104                   hru         104     5.9899E-6       0.01283       0.00000
     105  hru00105                   hru         105     1.6959E-4       0.36327       0.00000
     106  hru00106                   hru         106     1.2354E-5       0.02646       0.00000
     107  hru00107                   hru         107     3.4068E-5       0.07298       0.00000
     108  hru00108                   hru         108     1.8269E-4       0.39134       0.00000
     109  hru00109                   hru         109     1.2729E-5       0.02727       0.00000
     110  hru00110                   hru         110     6.7387E-6       0.01443       0.00000
     111  hru00111                   hru         111     3.7437E-7       0.00080       0.00000
     112  hru00112                   hru         112     2.2088E-5       0.04731       0.00000
     113  hru00113                   hru         113     1.9842E-5       0.04250       0.00000
     114  hru00114                   hru         114     3.7437E-7       0.00080       0.00000
     115  hru00115                   hru         115     1.1332E-3       0.17659       0.00000
     116  hru00116                   hru         116     5.5407E-5       0.00863       0.00000
     117  hru00117                   hru         117     1.3429E-3       0.20926       0.00000
     118  hru00118                   hru         118     2.9950E-6       0.00047       0.00000
     119  hru00119                   hru         119     7.4874E-7       0.00012       0.00000
     120  hru00120                   hru         120     1.3728E-3       0.21393       0.00000
     121  hru00121                   hru         121     1.2759E-3       0.19882       0.00000
     122  hru00122                   hru         122     7.4500E-5       0.01161       0.00000
     123  hru00123                   hru         123     1.0108E-5       0.00158       0.00000
     124  hru00124                   hru         124     2.6206E-6       0.00041       0.00000
     125  hru00125                   hru         125     4.5786E-4       0.07135       0.00000
     126  hru00126                   hru         126     6.0948E-4       0.09498       0.00000
     127  hru00127                   hru         127     3.7437E-7       0.00006       0.00000
     128  hru00128                   hru         128     1.5724E-5       0.00245       0.00000
     129  hru00129                   hru         129     4.1181E-6       0.00064       0.00000
     130  hru00130                   hru         130     4.8668E-6       0.00076       0.00000
     131  hru00131                   hru         131     2.2462E-6       0.00035       0.00000
     132  hru00132                   hru         132     1.1231E-6       0.00018       0.00000
     133  hru00133                   hru         133     1.6847E-5       0.00263       0.00000
     134  hru00134                   hru         134     2.5083E-5       0.00391       0.00000
     135  hru00135                   hru         135     1.8719E-6       0.00029       0.00000
     136  hru00136                   hru         136     3.7437E-7       0.00006       0.00000
     137  hru00137                   hru         137     3.7437E-7       0.00006       0.00000
     138  hru00138                   hru         138     1.4975E-6       0.00023       0.00000
     139  hru00139                   hru         139     3.7437E-7       0.00006       0.00000
     140  hru00140                   hru         140     2.9950E-6       0.00047       0.00000
     141  hru00141                   hru         141     7.4874E-7       0.00012       0.00000
     142  hru00142                   hru         142     1.2560E-3       0.13180       0.00000
     143  hru00143                   hru         143     9.0149E-4       0.09459       0.00000
     144  hru00144                   hru         144     4.9417E-5       0.00519       0.00000
     145  hru00145                   hru         145     2.6206E-6       0.00027       0.00000
     146  hru00146                   hru         146     2.9950E-6       0.00031       0.00000
     147  hru00147                   hru         147     1.5428E-3       0.16189       0.00000
     148  hru00148                   hru         148     2.4843E-3       0.26069       0.00000
     149  hru00149                   hru         149     8.3859E-5       0.00880       0.00000
     150  hru00150                   hru         150     1.1980E-5       0.00126       0.00000
     151  hru00151                   hru         151     7.1131E-6       0.00075       0.00000
     152  hru00152                   hru         152     5.6942E-4       0.05975       0.00000
     153  hru00153                   hru         153     9.6962E-4       0.10174       0.00000
     154  hru00154                   hru         154     5.1663E-5       0.00542       0.00000
     155  hru00155                   hru         155     1.7970E-5       0.00189       0.00000
     156  hru00156                   hru         156     1.0108E-5       0.00106       0.00000
     157  hru00157                   hru         157     7.2628E-5       0.00762       0.00000
     158  hru00158                   hru         158     2.2088E-5       0.00232       0.00000
     159  hru00159                   hru         159     2.0965E-4       0.02200       0.00000
     160  hru00160                   hru         160     2.9164E-4       0.03060       0.00000
     161  hru00161                   hru         161     1.0108E-5       0.00106       0.00000
     162  hru00162                   hru         162     1.5349E-5       0.00161       0.00000
     163  hru00163                   hru         163     2.4708E-5       0.00259       0.00000
     164  hru00164                   hru         164     4.3053E-5       0.00452       0.00000
     165  hru00165                   hru         165     2.2462E-5       0.00236       0.00000
     166  hru00166                   hru         166     4.0806E-4       0.04282       0.00000
     167  hru00167                   hru         167     2.4147E-4       0.02534       0.00000
     168  hru00168                   hru         168     4.1181E-6       0.00043       0.00000
     169  hru00169                   hru         169     1.3477E-5       0.00141       0.00000
     170  hru00170                   hru         170     2.6206E-6       0.00027       0.00000
     171  hru00171                   hru         171     6.6264E-5       0.00695       0.00000
     172  hru00172                   hru         172     3.2945E-5       0.00346       0.00000
     173  hru00173                   hru         173     3.1447E-5       0.00330       0.00000
     174  hru00174                   hru         174     1.9842E-5       0.00208       0.00000
     175  hru00175                   hru         175     7.4874E-7       0.00008       0.00000
     176  hru00176                   hru         176     3.3693E-6       0.00035       0.00000
     177  hru00177                   hru         177     1.6098E-5       0.00169       0.00000
     178  hru00178                   hru         178     4.8668E-6       0.00051       0.00000
     179  hru00179                   hru         179     1.0108E-5       0.00106       0.00000
     180  hru00180                   hru         180     1.1231E-6       0.00012       0.00000
     181  hru00181                   hru         181     3.7437E-7       0.00004       0.00000
     182  hru00182                   hru         182     1.2729E-5       1.00000       0.00000
     183  hru00183                   hru         183     8.1463E-4       0.18749       0.00000
     184  hru00184                   hru         184     1.3927E-4       0.03205       0.00000
     185  hru00185                   hru         185     1.8603E-3       0.42814       0.00000
     186  hru00186                   hru         186     4.1331E-4       0.09512       0.00000
     187  hru00187                   hru         187     1.0857E-5       0.00250       0.00000
     188  hru00188                   hru         188     2.2462E-6       0.00052       0.00000
     189  hru00189                   hru         189     2.2462E-6       0.00052       0.00000
     190  hru00190                   hru         190     7.9142E-4       0.18215       0.00000
     191  hru00191                   hru         191     2.6917E-4       0.06195       0.00000
     192  hru00192                   hru         192     2.3211E-5       0.00534       0.00000
     193  hru00193                   hru         193     5.9899E-6       0.00138       0.00000
     194  hru00194                   hru         194     2.9950E-6       0.00069       0.00000
     195  hru00195                   hru         195     3.7437E-6       0.00086       0.00000
     196  hru00196                   hru         196     1.1231E-6       0.00026       0.00000
     197  hru00197                   hru         197     1.8719E-6       0.00043       0.00000
     198  hru00198                   hru         198     1.1231E-6       0.00026       0.00000
     199  hru00199                   hru         199     3.7437E-7       0.00009       0.00000
     200  hru00200                   hru         200     1.1231E-6       0.00026       0.00000
     201  hru00201                   hru         201     6.7761E-5       0.14959       0.00000
     202  hru00202                   hru         202     5.4658E-5       0.12066       0.00000
     203  hru00203                   hru         203     7.1131E-6       0.01570       0.00000
     204  hru00204                   hru         204     3.7437E-7       0.00083       0.00000
     205  hru00205                   hru         205     4.2304E-5       0.09339       0.00000
     206  hru00206                   hru         206     4.4925E-5       0.09917       0.00000
     207  hru00207                   hru         207     2.2462E-6       0.00496       0.00000
     208  hru00208                   hru         208     7.4874E-7       0.00165       0.00000
     209  hru00209                   hru         209     4.1181E-6       0.00909       0.00000
     210  hru00210                   hru         210     9.1721E-5       0.20248       0.00000
     211  hru00211                   hru         211     1.1830E-4       0.26116       0.00000
     212  hru00212                   hru         212     7.1131E-6       0.01570       0.00000
     213  hru00213                   hru         213     1.8719E-6       0.00413       0.00000
     214  hru00214                   hru         214     2.6206E-6       0.00579       0.00000
     215  hru00215                   hru         215     7.1131E-6       0.01570       0.00000
     216  hru00216                   hru         216     4.8481E-4       0.07470       0.00000
     217  hru00217                   hru         217     5.1963E-4       0.08006       0.00000
     218  hru00218                   hru         218     8.9475E-5       0.01379       0.00000
     219  hru00219                   hru         219     1.5724E-5       0.00242       0.00000
     220  hru00220                   hru         220     4.8668E-6       0.00075       0.00000
     221  hru00221                   hru         221     7.5249E-5       0.01159       0.00000
     222  hru00222                   hru         222     5.3161E-5       0.00819       0.00000
     223  hru00223                   hru         223     7.4874E-7       0.00012       0.00000
     224  hru00224                   hru         224     1.2354E-5       0.00190       0.00000
     225  hru00225                   hru         225     1.4975E-6       0.00023       0.00000
     226  hru00226                   hru         226     3.2945E-5       0.00508       0.00000
     227  hru00227                   hru         227     3.2196E-5       0.00496       0.00000
     228  hru00228                   hru         228     3.7437E-6       0.00058       0.00000
     229  hru00229                   hru         229     1.7303E-3       0.26661       0.00000
     230  hru00230                   hru         230     6.5290E-4       0.10060       0.00000
     231  hru00231                   hru         231     2.2462E-6       0.00035       0.00000
     232  hru00232                   hru         232     3.7437E-7       0.00006       0.00000
     233  hru00233                   hru         233     1.2729E-5       0.00196       0.00000
     234  hru00234                   hru         234     1.6147E-3       0.24879       0.00000
     235  hru00235                   hru         235     9.6625E-4       0.14888       0.00000
     236  hru00236                   hru         236     8.4982E-5       0.01309       0.00000
     237  hru00237                   hru         237     1.2729E-5       0.00196       0.00000
     238  hru00238                   hru         238     2.6206E-6       0.00040       0.00000
     239  hru00239                   hru         239     1.1980E-5       0.00185       0.00000
     240  hru00240                   hru         240     2.2462E-6       0.00035       0.00000
     241  hru00241                   hru         241     1.8719E-6       0.00029       0.00000
     242  hru00242                   hru         242     4.8668E-5       0.00750       0.00000
     243  hru00243                   hru         243     1.9093E-5       0.00294       0.00000
     244  hru00244                   hru         244     9.8946E-4       0.12040       0.00000
     245  hru00245                   hru         245     1.9505E-4       0.02373       0.00000
     246  hru00246                   hru         246     5.3797E-4       0.06546       0.00000
     247  hru00247                   hru         247     4.1930E-5       0.00510       0.00000
     248  hru00248                   hru         248     1.2354E-5       0.00150       0.00000
     249  hru00249                   hru         249     2.5468E-3       0.30990       0.00000
     250  hru00250                   hru         250     3.5678E-4       0.04341       0.00000
     251  hru00251                   hru         251     3.0025E-3       0.36534       0.00000
     252  hru00252                   hru         252     8.4234E-5       0.01025       0.00000
     253  hru00253                   hru         253     1.6472E-5       0.00200       0.00000
     254  hru00254                   hru         254     9.3967E-5       0.01143       0.00000
     255  hru00255                   hru         255     1.9467E-4       0.02369       0.00000
     256  hru00256                   hru         256     8.9849E-6       0.00109       0.00000
     257  hru00257                   hru         257     1.0857E-5       0.00132       0.00000
     258  hru00258                   hru         258     7.1131E-6       0.00087       0.00000
     259  hru00259                   hru         259     7.4874E-5       0.00911       0.00000
     260  hru00260                   hru         260     4.2678E-5       0.00519       0.00000
     261  hru00261                   hru         261     3.7437E-7       0.00005       0.00000
     262  hru00262                   hru         262     3.7437E-7       0.00005       0.00000
     263  hru00263                   hru         263     7.4874E-7       0.00009       0.00000
     264  hru00264                   hru         264     2.9950E-4       0.02129       0.00000
     265  hru00265                   hru         265     9.4267E-4       0.06700       0.00000
     266  hru00266                   hru         266     7.9404E-4       0.05644       0.00000
     267  hru00267                   hru         267     1.4001E-4       0.00995       0.00000
     268  hru00268                   hru         268     1.3889E-4       0.00987       0.00000
     269  hru00269                   hru         269     2.5176E-3       0.17894       0.00000
     270  hru00270                   hru         270     5.3520E-3       0.38038       0.00000
     271  hru00271                   hru         271     2.8752E-4       0.02043       0.00000
     272  hru00272                   hru         272     2.3585E-5       0.00168       0.00000
     273  hru00273                   hru         273     2.6206E-6       0.00019       0.00000
     274  hru00274                   hru         274     2.4641E-3       0.17513       0.00000
     275  hru00275                   hru         275     3.9983E-4       0.02842       0.00000
     276  hru00276                   hru         276     1.0108E-5       0.00072       0.00000
     277  hru00277                   hru         277     1.8719E-6       0.00013       0.00000
     278  hru00278                   hru         278     1.4975E-6       0.00011       0.00000
     279  hru00279                   hru         279     1.9692E-4       0.01400       0.00000
     280  hru00280                   hru         280     2.4334E-5       0.00173       0.00000
     281  hru00281                   hru         281     3.7437E-7       0.00003       0.00000
     282  hru00282                   hru         282     2.4671E-4       0.01753       0.00000
     283  hru00283                   hru         283     1.0108E-5       0.00072       0.00000
     284  hru00284                   hru         284     6.9633E-5       0.00495       0.00000
     285  hru00285                   hru         285     1.4975E-6       0.00011       0.00000
     286  hru00286                   hru         286     1.4413E-4       0.01024       0.00000
     287  hru00287                   hru         287     3.7437E-7       0.00003       0.00000
     288  hru00288                   hru         288     7.8693E-4       0.09679       0.00000
     289  hru00289                   hru         289     5.1102E-4       0.06286       0.00000
     290  hru00290                   hru         290     2.1901E-4       0.02694       0.00000
     291  hru00291                   hru         291     9.6588E-5       0.01188       0.00000
     292  hru00292                   hru         292     7.1879E-5       0.00884       0.00000
     293  hru00293                   hru         293     2.1889E-3       0.26925       0.00000
     294  hru00294                   hru         294     3.0897E-3       0.38004       0.00000
     295  hru00295                   hru         295     1.2953E-4       0.01593       0.00000
     296  hru00296                   hru         296     1.6098E-5       0.00198       0.00000
     297  hru00297                   hru         297     2.6206E-6       0.00032       0.00000
     298  hru00298                   hru         298     6.7349E-4       0.08284       0.00000
     299  hru00299                   hru         299     3.0174E-4       0.03712       0.00000
     300  hru00300                   hru         300     4.8668E-6       0.00060       0.00000
     301  hru00301                   hru         301     3.7437E-7       0.00005       0.00000
     302  hru00302                   hru         302     2.8078E-5       0.00345       0.00000
     303  hru00303                   hru         303     8.9849E-6       0.00111       0.00000
     304  hru00304                   hru         304     6.7012E-5       0.00990       0.00000
     305  hru00305                   hru         305     7.8992E-5       0.01167       0.00000
     306  hru00306                   hru         306     4.3427E-5       0.00642       0.00000
     307  hru00307                   hru         307     1.9318E-4       0.02854       0.00000
     308  hru00308                   hru         308     2.5270E-4       0.03734       0.00000
     309  hru00309                   hru         309     1.7962E-3       0.26541       0.00000
     310  hru00310                   hru         310     9.1459E-4       0.13514       0.00000