rout_unit.def: written by SWAT+ editor v3.0.8 on 2025-11-17 21:10 for SWAT+ rev.61.0.1
      id              name  elem_tot  elements
       1           rtu0010         2       720      -743
       2           rtu0020         2       599      -618
       3           rtu0030         2       629      -644
       4           rtu0040         2       653      -655
       5           rtu0050         2       767      -803
       6           rtu0060         2       680      -707
       7           rtu0070         2       656      -679
       8           rtu0080         2        56       -78
       9           rtu0090         2       104      -114
      10           rtu0100         2       201      -215
      11           rtu0110         2         8       -30
      12           rtu0120         1       182
      13           rtu0130         2       304      -325
      14           rtu0140         2        79      -103
      15           rtu0150         2       357      -362
      16           rtu0160         2       326      -356
      17           rtu0170         2       264      -287
      18           rtu0180         2       619      -628
      19           rtu0190         2       142      -181
      20           rtu0200         2       216      -243
      21           rtu0210         2       288      -303
      22           rtu0220         2       183      -200
      23           rtu0230         2        43       -55
      24           rtu0240         2       244      -263
      25           rtu0250         2       115      -141
      26           rtu0260         2       567      -598
      27           rtu0270         2        31       -42
      28           rtu0280         2         1        -7
      29           rtu0290         2       558      -566
      30           rtu0300         2       519      -557
      31           rtu0310         2      1015     -1036
      32           rtu0320         2      1009     -1014
      33           rtu0330         2      1056     -1062
      34           rtu0340         2      1063     -1077
      35           rtu0350         2      1141     -1160
      36           rtu0360         2      1161     -1182
      37           rtu0370         2      1285     -1293
      38           rtu0380         2      1327     -1330
      39           rtu0390         2      1294     -1311
      40           rtu0400         2      1411     -1415
      41           rtu0410         2      1312     -1326
      42           rtu0420         1      1484
      43           rtu0430         2      1467     -1483
      44           rtu0440         2      1746     -1843
      45           rtu0450         2       744      -766
      46           rtu0460         2       645      -652
      47           rtu0470         2       455      -463
      48           rtu0480         2       372      -404
      49           rtu0490         2      1455     -1466
      50           rtu0500         2      1485     -1503
      51           rtu0510         2      1331     -1355
      52           rtu0520         2       363      -371
      53           rtu0530         2       405      -454
      54           rtu0540         2       464      -518
      55           rtu0550         2       834      -867
      56           rtu0560         2       917      -927
      57           rtu0570         2       887      -888
      58           rtu0580         2      1356     -1372
      59           rtu0590         2      1210     -1224
      60           rtu0600         2      1183     -1209
      61           rtu0610         2       928      -967
      62           rtu0620         2      1097     -1117
      63           rtu0630         2      1118     -1140
      64           rtu0640         2      1225     -1284
      65           rtu0650         2       968     -1008
      66           rtu0660         2      1078     -1096
      67           rtu0670         2      1037     -1055
      68           rtu0680         2       889      -916
      69           rtu0690         2       868      -886
      70           rtu0700         2       804      -833
      71           rtu0710         2       708      -719
      72           rtu0720         2      1416     -1454
      73           rtu0730         2      1932     -1957
      74           rtu0740         2      1984     -2004
      75           rtu0750         2      3947     -4063
      76           rtu0760         2      3818     -3886
      77           rtu0770         2      1554     -1568
      78           rtu0780         2      1569     -1597
      79           rtu0790         2      1662     -1667
      80           rtu0800         2      1533     -1553
      81           rtu0810         2      2446     -2529
      82           rtu0820         2      1373     -1410
      83           rtu0830         2      1878     -1914
      84           rtu0840         2      2089     -2164
      85           rtu0850         2      1958     -1983
      86           rtu0860         2      1915     -1931
      87           rtu0870         2      1844     -1877
      88           rtu0880         2      1703     -1717
      89           rtu0890         2      1718     -1745
      90           rtu0900         2      1668     -1702
      91           rtu0910         2      1634     -1661
      92           rtu0920         2      1598     -1633
      93           rtu0930         2      1504     -1532
      94           rtu0940         2      4612     -4629
      95           rtu0950         2      4307     -4381
      96           rtu0960         2      3741     -3817
      97           rtu0970         2      2374     -2445
      98           rtu0980         2      3243     -3251
      99           rtu0990         2      2765     -2791
     100           rtu1000         2      5957     -6056
     101           rtu1010         2      6275     -6294
     102           rtu1020         2      2671     -2697
     103           rtu1030         2      2999     -3062
     104           rtu1040         2      2698     -2713
     105           rtu1050         2      6295     -6365
     106           rtu1060         2      2612     -2645
     107           rtu1070         2      2992     -2998
     108           rtu1080         2      2646     -2654
     109           rtu1090         2      2553     -2611
     110           rtu1100         2      2530     -2552
     111           rtu1110         2      6550     -6837
     112           rtu1120         2      2272     -2373
     113           rtu1130         2      2655     -2670
     114           rtu1140         2      4249     -4306
     115           rtu1150         2      6057     -6274
     116           rtu1160         2      4630     -4717
     117           rtu1170         2      6838     -7064
     118           rtu1180         2      4382     -4611
     119           rtu1190         2      2005     -2044
     120           rtu1200         2      2218     -2253
     121           rtu1210         2      2045     -2088
     122           rtu1220         2      2792     -2859
     123           rtu1230         2      4064     -4248
     124           rtu1240         2      3063     -3242
     125           rtu1250         2      6366     -6549
     126           rtu1260         2      3561     -3740
     127           rtu1270         2      3252     -3398
     128           rtu1280         2      3473     -3560
     129           rtu1290         2      3887     -3946
     130           rtu1300         2      3399     -3472
     131           rtu1310         2      2254     -2271
     132           rtu1320         2      2860     -2991
     133           rtu1330         2      2714     -2764
     134           rtu1340         2      2195     -2217
     135           rtu1350         2      2165     -2194
     136           rtu1360         2      4718     -4800
     137           rtu1370         2      5441     -5611
     138           rtu1380         2      5612     -5681
     139           rtu1390         2      9323     -9584
     140           rtu1400         2      7217     -7320
     141           rtu1410         2      7321     -7470
     142           rtu1420         2      7748     -7903
     143           rtu1430         2      8242     -8398
     144           rtu1440         2      7904     -8241
     145           rtu1450         2      8601     -8663
     146           rtu1460         2      8804     -9012
     147           rtu1470         2      7110     -7216
     148           rtu1480         2      8399     -8600
     149           rtu1490         2      5682     -5956
     150           rtu1500         2      7471     -7747
     151           rtu1510         2      7065     -7109
     152           rtu1520         2      5287     -5440
     153           rtu1530         2      5102     -5286
     154           rtu1540         2      4883     -5101
     155           rtu1550         2      4801     -4882
     156           rtu1560         2      9682     -9834
     157           rtu1570         2      9944    -10054
     158           rtu1580         2      9194     -9322
     159           rtu1590         2     10055    -10234
     160           rtu1600         2      9835     -9943
     161           rtu1610         2      8664     -8803
     162           rtu1620         2      9585     -9681
     163           rtu1630         2      9013     -9193
