management.sch: written by SWAT+ editor v3.1.0 on 2026-01-23 18:05 for SWAT+ rev.61.0.2
name                                       numb_ops  numb_auto            op_typ       mon       day        hu_sch          op_data1          op_data2      op_data3  
agrl_rot                          0          1  
                                                   pl_hv_summer1   agrl  
frst_rot                          0          2  
                                                   burn_jan_2016  
                                                   burn_june_2016  
